version 2
run SingleCell-DL-0-20161013-22:59:57-15263
attr configname SingleCell-DL
attr datetime 20161013-22:59:57
attr experiment SingleCell-DL
attr inifile omnetpp.ini
attr iterationvars $numUEs=5
attr iterationvars2 "$numUEs=5, $repetition=0"
attr measurement $numUEs=5
attr network lte.simulations.networks.SingleCell
attr numUEs 5
attr processid 15263
attr repetition 0
attr replication #0
attr resultdir results
attr runnumber 0
attr seedset 0

scalar . 	numUEs 	5
scalar SingleCell 	hackForCreateResultsFolder 	0
