version 2
run InterferenceTest-1-20161024-18:54:01-8375
attr configname InterferenceTest
attr datetime 20161024-18:54:01
attr experiment InterferenceTest
attr extAllocType "\"RANDOM_ALLOC\""
attr inifile omnetpp.ini
attr iterationvars "$extAllocType=\"RANDOM_ALLOC\""
attr iterationvars2 "$extAllocType=\"RANDOM_ALLOC\", $repetition=0"
attr measurement "$extAllocType=\"RANDOM_ALLOC\""
attr network lte.simulations.multicell2.MultiCell2
attr processid 8375
attr repetition 0
attr replication #0
attr resultdir results
attr runnumber 1
attr seedset 0

scalar MultiCell2 	hackForCreateResultsFolder 	0
scalar MultiCell2.server.networkLayer.arp 	failedARPResolution:count 	0
attr title  "ARP failed resolutions, count"
scalar MultiCell2.server.networkLayer.arp 	completedARPResolution:count 	0
attr title  "ARP completed resolutions, count"
scalar MultiCell2.server.networkLayer.arp 	initiatedARPResolution:count 	0
attr title  "ARP initiated resolutions, count"
scalar MultiCell2.server.networkLayer.arp 	sentReply:count 	0
attr title  "ARP replies sent, count"
scalar MultiCell2.server.networkLayer.arp 	sentReq:count 	0
attr title  "ARP request sent, count"
scalar MultiCell2.server.lo0.lo 	droppedPkBitError:count 	0
attr interpolationmode  none
attr source  dropPkBitError
attr title  "packets dropped/bit error, count"
scalar MultiCell2.server.lo0.lo 	droppedPkBitError:sum(packetBytes) 	0
attr interpolationmode  none
attr source  dropPkBitError
attr title  "packets dropped/bit error, sum(packetBytes)"
scalar MultiCell2.server.lo0.lo 	rcvdPkFromHL:count 	0
attr interpolationmode  none
attr source  packetReceivedFromUpper
attr title  "packets received from higher layer, count"
scalar MultiCell2.server.lo0.lo 	rcvdPkFromHL:sum(packetBytes) 	0
attr interpolationmode  none
attr source  packetReceivedFromUpper
attr title  "packets received from higher layer, sum(packetBytes)"
scalar MultiCell2.server.lo0.lo 	passedUpPk:count 	0
attr interpolationmode  none
attr source  packetSentToUpper
attr title  "packets passed to higher layer, count"
scalar MultiCell2.server.lo0.lo 	passedUpPk:sum(packetBytes) 	0
attr interpolationmode  none
attr source  packetSentToUpper
attr title  "packets passed to higher layer, sum(packetBytes)"
scalar MultiCell2.server.ppp[0].queue 	queueLength:max 	0
attr interpolationmode  sample-hold
attr title  "queue length, max"
scalar MultiCell2.server.ppp[0].queue 	queueLength:timeavg 	0
attr interpolationmode  sample-hold
attr title  "queue length, timeavg"
statistic MultiCell2.server.ppp[0].queue 	queueingTime:histogram
field count 450
field mean 0
field stddev 0
field sum 0
field sqrsum 0
field min 0
field max 0
attr interpolationmode  none
attr title  "queueing time, histogram"
bin	-INF	0
bin	-0.5	0
bin	-0.46666666666667	0
bin	-0.43333333333333	0
bin	-0.4	0
bin	-0.36666666666667	0
bin	-0.33333333333333	0
bin	-0.3	0
bin	-0.26666666666667	0
bin	-0.23333333333333	0
bin	-0.2	0
bin	-0.16666666666667	0
bin	-0.13333333333333	0
bin	-0.1	0
bin	-0.066666666666667	0
bin	-0.033333333333333	0
bin	0	450
bin	0.033333333333333	0
bin	0.066666666666667	0
bin	0.1	0
bin	0.13333333333333	0
bin	0.16666666666667	0
bin	0.2	0
bin	0.23333333333333	0
bin	0.26666666666667	0
bin	0.3	0
bin	0.33333333333333	0
bin	0.36666666666667	0
bin	0.4	0
bin	0.43333333333333	0
bin	0.46666666666667	0
bin	0.5	0
scalar MultiCell2.server.ppp[0].queue 	dropPk:count 	0
attr interpolationmode  none
attr source  dropPkByQueue
attr title  "dropped packets, count"
scalar MultiCell2.server.ppp[0].queue 	dropPk:sum(packetBytes) 	0
attr interpolationmode  none
attr source  dropPkByQueue
attr title  "dropped packets, sum(packetBytes)"
scalar MultiCell2.server.ppp[0].queue 	rcvdPk:count 	450
attr interpolationmode  none
attr title  "received packets, count"
scalar MultiCell2.server.ppp[0].queue 	rcvdPk:sum(packetBytes) 	30600
attr interpolationmode  none
attr title  "received packets, sum(packetBytes)"
scalar MultiCell2.server.ppp[0].ppp 	txState:timeavg 	0.00010238907849829
attr interpolationmode  sample-hold
attr title  "tx state, timeavg"
scalar MultiCell2.server.ppp[0].ppp 	droppedPkIfaceDown:count 	0
attr interpolationmode  none
attr source  dropPkIfaceDown
attr title  "packets dropped/interface down, count"
scalar MultiCell2.server.ppp[0].ppp 	droppedPkIfaceDown:sum(packetBytes) 	0
attr interpolationmode  none
attr source  dropPkIfaceDown
attr title  "packets dropped/interface down, sum(packetBytes)"
scalar MultiCell2.server.ppp[0].ppp 	droppedPkBitError:count 	0
attr interpolationmode  none
attr source  dropPkBitError
attr title  "packets dropped/bit error, count"
scalar MultiCell2.server.ppp[0].ppp 	droppedPkBitError:sum(packetBytes) 	0
attr interpolationmode  none
attr source  dropPkBitError
attr title  "packets dropped/bit error, sum(packetBytes)"
scalar MultiCell2.server.ppp[0].ppp 	rxPkOk:count 	0
attr interpolationmode  none
attr source  rxPkOk
attr title  "packets received OK, count"
scalar MultiCell2.server.ppp[0].ppp 	rxPkOk:sum(packetBytes) 	0
attr interpolationmode  none
attr source  rxPkOk
attr title  "packets received OK, sum(packetBytes)"
scalar MultiCell2.server.ppp[0].ppp 	rcvdPkFromHL:count 	450
attr interpolationmode  none
attr source  packetReceivedFromUpper
attr title  "packets received from higher layer, count"
scalar MultiCell2.server.ppp[0].ppp 	rcvdPkFromHL:sum(packetBytes) 	30600
attr interpolationmode  none
attr source  packetReceivedFromUpper
attr title  "packets received from higher layer, sum(packetBytes)"
scalar MultiCell2.server.ppp[0].ppp 	passedUpPk:count 	0
attr interpolationmode  none
attr source  packetSentToUpper
attr title  "packets passed to higher layer, count"
scalar MultiCell2.server.ppp[0].ppp 	passedUpPk:sum(packetBytes) 	0
attr interpolationmode  none
attr source  packetSentToUpper
attr title  "packets passed to higher layer, sum(packetBytes)"
scalar MultiCell2.server.ppp[0].ppp 	txPk:count 	450
attr interpolationmode  none
attr source  packetSentToLower
attr title  "packets transmitted, count"
scalar MultiCell2.server.ppp[0].ppp 	txPk:sum(packetBytes) 	33750
attr interpolationmode  none
attr source  packetSentToLower
attr title  "packets transmitted, sum(packetBytes)"
scalar MultiCell2.server.udpApp[0] 	voIPGeneratedThroughtput:timeavg 	-nan
attr source  voIPGeneratedThroughtput
attr title  "Throughput generated by the application, timeavg"
attr unit  Bps
scalar MultiCell2.server.udpApp[0] 	voIPGeneratedThroughtput:mean 	-nan
attr source  voIPGeneratedThroughtput
attr title  "Throughput generated by the application, mean"
attr unit  Bps
scalar MultiCell2.server.udpApp[0] 	voIPGeneratedThroughtput:last(sumPerDuration) 	-nan
attr source  voIPGeneratedThroughtput
attr title  "Throughput generated by the application, last(sumPerDuration)"
attr unit  Bps
scalar MultiCell2.server.udpApp[0] 	voIPGeneratedThroughtput:sum 	0
attr source  voIPGeneratedThroughtput
attr title  "Throughput generated by the application, sum"
attr unit  Bps
scalar MultiCell2.server.udpApp[1] 	voIPGeneratedThroughtput:timeavg 	-nan
attr source  voIPGeneratedThroughtput
attr title  "Throughput generated by the application, timeavg"
attr unit  Bps
scalar MultiCell2.server.udpApp[1] 	voIPGeneratedThroughtput:mean 	-nan
attr source  voIPGeneratedThroughtput
attr title  "Throughput generated by the application, mean"
attr unit  Bps
scalar MultiCell2.server.udpApp[1] 	voIPGeneratedThroughtput:last(sumPerDuration) 	-nan
attr source  voIPGeneratedThroughtput
attr title  "Throughput generated by the application, last(sumPerDuration)"
attr unit  Bps
scalar MultiCell2.server.udpApp[1] 	voIPGeneratedThroughtput:sum 	0
attr source  voIPGeneratedThroughtput
attr title  "Throughput generated by the application, sum"
attr unit  Bps
scalar MultiCell2.server.udpApp[2] 	voIPGeneratedThroughtput:timeavg 	-nan
attr source  voIPGeneratedThroughtput
attr title  "Throughput generated by the application, timeavg"
attr unit  Bps
scalar MultiCell2.server.udpApp[2] 	voIPGeneratedThroughtput:mean 	-nan
attr source  voIPGeneratedThroughtput
attr title  "Throughput generated by the application, mean"
attr unit  Bps
scalar MultiCell2.server.udpApp[2] 	voIPGeneratedThroughtput:last(sumPerDuration) 	-nan
attr source  voIPGeneratedThroughtput
attr title  "Throughput generated by the application, last(sumPerDuration)"
attr unit  Bps
scalar MultiCell2.server.udpApp[2] 	voIPGeneratedThroughtput:sum 	0
attr source  voIPGeneratedThroughtput
attr title  "Throughput generated by the application, sum"
attr unit  Bps
scalar MultiCell2.server.udpApp[3] 	voIPGeneratedThroughtput:timeavg 	-nan
attr source  voIPGeneratedThroughtput
attr title  "Throughput generated by the application, timeavg"
attr unit  Bps
scalar MultiCell2.server.udpApp[3] 	voIPGeneratedThroughtput:mean 	-nan
attr source  voIPGeneratedThroughtput
attr title  "Throughput generated by the application, mean"
attr unit  Bps
scalar MultiCell2.server.udpApp[3] 	voIPGeneratedThroughtput:last(sumPerDuration) 	-nan
attr source  voIPGeneratedThroughtput
attr title  "Throughput generated by the application, last(sumPerDuration)"
attr unit  Bps
scalar MultiCell2.server.udpApp[3] 	voIPGeneratedThroughtput:sum 	0
attr source  voIPGeneratedThroughtput
attr title  "Throughput generated by the application, sum"
attr unit  Bps
scalar MultiCell2.server.udp 	droppedPkBadChecksum:count 	0
attr interpolationmode  none
attr title  "packets dropped (checksum error), count"
scalar MultiCell2.server.udp 	droppedPkWrongPort:count 	0
attr interpolationmode  none
attr title  "packets dropped (wrong port), count"
scalar MultiCell2.server.udp 	passedUpPk:count 	0
attr interpolationmode  none
attr title  "packets passed up, count"
scalar MultiCell2.server.udp 	rcvdPk:count 	0
attr interpolationmode  none
attr source  rcvdPk
attr title  "packets received, count"
scalar MultiCell2.server.udp 	rcvdPk:sum(packetBytes) 	0
attr interpolationmode  none
attr source  rcvdPk
attr title  "packets received, sum(packetBytes)"
scalar MultiCell2.server.udp 	sentPk:count 	450
attr interpolationmode  none
attr source  sentPk
attr title  "packets sent, count"
scalar MultiCell2.server.udp 	sentPk:sum(packetBytes) 	21600
attr interpolationmode  none
attr source  sentPk
attr title  "packets sent, sum(packetBytes)"
scalar MultiCell2.router.networkLayer.arp 	failedARPResolution:count 	0
attr title  "ARP failed resolutions, count"
scalar MultiCell2.router.networkLayer.arp 	completedARPResolution:count 	0
attr title  "ARP completed resolutions, count"
scalar MultiCell2.router.networkLayer.arp 	initiatedARPResolution:count 	0
attr title  "ARP initiated resolutions, count"
scalar MultiCell2.router.networkLayer.arp 	sentReply:count 	0
attr title  "ARP replies sent, count"
scalar MultiCell2.router.networkLayer.arp 	sentReq:count 	0
attr title  "ARP request sent, count"
scalar MultiCell2.router.lo0.lo 	droppedPkBitError:count 	0
attr interpolationmode  none
attr source  dropPkBitError
attr title  "packets dropped/bit error, count"
scalar MultiCell2.router.lo0.lo 	droppedPkBitError:sum(packetBytes) 	0
attr interpolationmode  none
attr source  dropPkBitError
attr title  "packets dropped/bit error, sum(packetBytes)"
scalar MultiCell2.router.lo0.lo 	rcvdPkFromHL:count 	0
attr interpolationmode  none
attr source  packetReceivedFromUpper
attr title  "packets received from higher layer, count"
scalar MultiCell2.router.lo0.lo 	rcvdPkFromHL:sum(packetBytes) 	0
attr interpolationmode  none
attr source  packetReceivedFromUpper
attr title  "packets received from higher layer, sum(packetBytes)"
scalar MultiCell2.router.lo0.lo 	passedUpPk:count 	0
attr interpolationmode  none
attr source  packetSentToUpper
attr title  "packets passed to higher layer, count"
scalar MultiCell2.router.lo0.lo 	passedUpPk:sum(packetBytes) 	0
attr interpolationmode  none
attr source  packetSentToUpper
attr title  "packets passed to higher layer, sum(packetBytes)"
scalar MultiCell2.router.ppp[0].queue 	queueLength:max 	0
attr interpolationmode  sample-hold
attr title  "queue length, max"
scalar MultiCell2.router.ppp[0].queue 	queueLength:timeavg 	0
attr interpolationmode  sample-hold
attr title  "queue length, timeavg"
statistic MultiCell2.router.ppp[0].queue 	queueingTime:histogram
field count 0
field mean -nan
field stddev -nan
field sum 0
field sqrsum 0
field min -nan
field max -nan
attr interpolationmode  none
attr title  "queueing time, histogram"
bin	-INF	0
bin	-0.5	0
bin	-0.46666666666667	0
bin	-0.43333333333333	0
bin	-0.4	0
bin	-0.36666666666667	0
bin	-0.33333333333333	0
bin	-0.3	0
bin	-0.26666666666667	0
bin	-0.23333333333333	0
bin	-0.2	0
bin	-0.16666666666667	0
bin	-0.13333333333333	0
bin	-0.1	0
bin	-0.066666666666667	0
bin	-0.033333333333333	0
bin	0	0
bin	0.033333333333333	0
bin	0.066666666666667	0
bin	0.1	0
bin	0.13333333333333	0
bin	0.16666666666667	0
bin	0.2	0
bin	0.23333333333333	0
bin	0.26666666666667	0
bin	0.3	0
bin	0.33333333333333	0
bin	0.36666666666667	0
bin	0.4	0
bin	0.43333333333333	0
bin	0.46666666666667	0
bin	0.5	0
scalar MultiCell2.router.ppp[0].queue 	dropPk:count 	0
attr interpolationmode  none
attr source  dropPkByQueue
attr title  "dropped packets, count"
scalar MultiCell2.router.ppp[0].queue 	dropPk:sum(packetBytes) 	0
attr interpolationmode  none
attr source  dropPkByQueue
attr title  "dropped packets, sum(packetBytes)"
scalar MultiCell2.router.ppp[0].queue 	rcvdPk:count 	0
attr interpolationmode  none
attr title  "received packets, count"
scalar MultiCell2.router.ppp[0].queue 	rcvdPk:sum(packetBytes) 	0
attr interpolationmode  none
attr title  "received packets, sum(packetBytes)"
scalar MultiCell2.router.ppp[0].ppp 	txState:timeavg 	0
attr interpolationmode  sample-hold
attr title  "tx state, timeavg"
scalar MultiCell2.router.ppp[0].ppp 	droppedPkIfaceDown:count 	0
attr interpolationmode  none
attr source  dropPkIfaceDown
attr title  "packets dropped/interface down, count"
scalar MultiCell2.router.ppp[0].ppp 	droppedPkIfaceDown:sum(packetBytes) 	0
attr interpolationmode  none
attr source  dropPkIfaceDown
attr title  "packets dropped/interface down, sum(packetBytes)"
scalar MultiCell2.router.ppp[0].ppp 	droppedPkBitError:count 	0
attr interpolationmode  none
attr source  dropPkBitError
attr title  "packets dropped/bit error, count"
scalar MultiCell2.router.ppp[0].ppp 	droppedPkBitError:sum(packetBytes) 	0
attr interpolationmode  none
attr source  dropPkBitError
attr title  "packets dropped/bit error, sum(packetBytes)"
scalar MultiCell2.router.ppp[0].ppp 	rxPkOk:count 	450
attr interpolationmode  none
attr source  rxPkOk
attr title  "packets received OK, count"
scalar MultiCell2.router.ppp[0].ppp 	rxPkOk:sum(packetBytes) 	33750
attr interpolationmode  none
attr source  rxPkOk
attr title  "packets received OK, sum(packetBytes)"
scalar MultiCell2.router.ppp[0].ppp 	rcvdPkFromHL:count 	0
attr interpolationmode  none
attr source  packetReceivedFromUpper
attr title  "packets received from higher layer, count"
scalar MultiCell2.router.ppp[0].ppp 	rcvdPkFromHL:sum(packetBytes) 	0
attr interpolationmode  none
attr source  packetReceivedFromUpper
attr title  "packets received from higher layer, sum(packetBytes)"
scalar MultiCell2.router.ppp[0].ppp 	passedUpPk:count 	450
attr interpolationmode  none
attr source  packetSentToUpper
attr title  "packets passed to higher layer, count"
scalar MultiCell2.router.ppp[0].ppp 	passedUpPk:sum(packetBytes) 	30600
attr interpolationmode  none
attr source  packetSentToUpper
attr title  "packets passed to higher layer, sum(packetBytes)"
scalar MultiCell2.router.ppp[0].ppp 	txPk:count 	0
attr interpolationmode  none
attr source  packetSentToLower
attr title  "packets transmitted, count"
scalar MultiCell2.router.ppp[0].ppp 	txPk:sum(packetBytes) 	0
attr interpolationmode  none
attr source  packetSentToLower
attr title  "packets transmitted, sum(packetBytes)"
scalar MultiCell2.router.ppp[1].queue 	queueLength:max 	0
attr interpolationmode  sample-hold
attr title  "queue length, max"
scalar MultiCell2.router.ppp[1].queue 	queueLength:timeavg 	0
attr interpolationmode  sample-hold
attr title  "queue length, timeavg"
statistic MultiCell2.router.ppp[1].queue 	queueingTime:histogram
field count 450
field mean 0
field stddev 0
field sum 0
field sqrsum 0
field min 0
field max 0
attr interpolationmode  none
attr title  "queueing time, histogram"
bin	-INF	0
bin	-0.5	0
bin	-0.46666666666667	0
bin	-0.43333333333333	0
bin	-0.4	0
bin	-0.36666666666667	0
bin	-0.33333333333333	0
bin	-0.3	0
bin	-0.26666666666667	0
bin	-0.23333333333333	0
bin	-0.2	0
bin	-0.16666666666667	0
bin	-0.13333333333333	0
bin	-0.1	0
bin	-0.066666666666667	0
bin	-0.033333333333333	0
bin	0	450
bin	0.033333333333333	0
bin	0.066666666666667	0
bin	0.1	0
bin	0.13333333333333	0
bin	0.16666666666667	0
bin	0.2	0
bin	0.23333333333333	0
bin	0.26666666666667	0
bin	0.3	0
bin	0.33333333333333	0
bin	0.36666666666667	0
bin	0.4	0
bin	0.43333333333333	0
bin	0.46666666666667	0
bin	0.5	0
scalar MultiCell2.router.ppp[1].queue 	dropPk:count 	0
attr interpolationmode  none
attr source  dropPkByQueue
attr title  "dropped packets, count"
scalar MultiCell2.router.ppp[1].queue 	dropPk:sum(packetBytes) 	0
attr interpolationmode  none
attr source  dropPkByQueue
attr title  "dropped packets, sum(packetBytes)"
scalar MultiCell2.router.ppp[1].queue 	rcvdPk:count 	450
attr interpolationmode  none
attr title  "received packets, count"
scalar MultiCell2.router.ppp[1].queue 	rcvdPk:sum(packetBytes) 	30600
attr interpolationmode  none
attr title  "received packets, sum(packetBytes)"
scalar MultiCell2.router.ppp[1].ppp 	txState:timeavg 	0.00010238907849829
attr interpolationmode  sample-hold
attr title  "tx state, timeavg"
scalar MultiCell2.router.ppp[1].ppp 	droppedPkIfaceDown:count 	0
attr interpolationmode  none
attr source  dropPkIfaceDown
attr title  "packets dropped/interface down, count"
scalar MultiCell2.router.ppp[1].ppp 	droppedPkIfaceDown:sum(packetBytes) 	0
attr interpolationmode  none
attr source  dropPkIfaceDown
attr title  "packets dropped/interface down, sum(packetBytes)"
scalar MultiCell2.router.ppp[1].ppp 	droppedPkBitError:count 	0
attr interpolationmode  none
attr source  dropPkBitError
attr title  "packets dropped/bit error, count"
scalar MultiCell2.router.ppp[1].ppp 	droppedPkBitError:sum(packetBytes) 	0
attr interpolationmode  none
attr source  dropPkBitError
attr title  "packets dropped/bit error, sum(packetBytes)"
scalar MultiCell2.router.ppp[1].ppp 	rxPkOk:count 	0
attr interpolationmode  none
attr source  rxPkOk
attr title  "packets received OK, count"
scalar MultiCell2.router.ppp[1].ppp 	rxPkOk:sum(packetBytes) 	0
attr interpolationmode  none
attr source  rxPkOk
attr title  "packets received OK, sum(packetBytes)"
scalar MultiCell2.router.ppp[1].ppp 	rcvdPkFromHL:count 	450
attr interpolationmode  none
attr source  packetReceivedFromUpper
attr title  "packets received from higher layer, count"
scalar MultiCell2.router.ppp[1].ppp 	rcvdPkFromHL:sum(packetBytes) 	30600
attr interpolationmode  none
attr source  packetReceivedFromUpper
attr title  "packets received from higher layer, sum(packetBytes)"
scalar MultiCell2.router.ppp[1].ppp 	passedUpPk:count 	0
attr interpolationmode  none
attr source  packetSentToUpper
attr title  "packets passed to higher layer, count"
scalar MultiCell2.router.ppp[1].ppp 	passedUpPk:sum(packetBytes) 	0
attr interpolationmode  none
attr source  packetSentToUpper
attr title  "packets passed to higher layer, sum(packetBytes)"
scalar MultiCell2.router.ppp[1].ppp 	txPk:count 	450
attr interpolationmode  none
attr source  packetSentToLower
attr title  "packets transmitted, count"
scalar MultiCell2.router.ppp[1].ppp 	txPk:sum(packetBytes) 	33750
attr interpolationmode  none
attr source  packetSentToLower
attr title  "packets transmitted, sum(packetBytes)"
scalar MultiCell2.pgw.networkLayer.arp 	failedARPResolution:count 	0
attr title  "ARP failed resolutions, count"
scalar MultiCell2.pgw.networkLayer.arp 	completedARPResolution:count 	0
attr title  "ARP completed resolutions, count"
scalar MultiCell2.pgw.networkLayer.arp 	initiatedARPResolution:count 	0
attr title  "ARP initiated resolutions, count"
scalar MultiCell2.pgw.networkLayer.arp 	sentReply:count 	0
attr title  "ARP replies sent, count"
scalar MultiCell2.pgw.networkLayer.arp 	sentReq:count 	0
attr title  "ARP request sent, count"
scalar MultiCell2.pgw.lo0.lo 	droppedPkBitError:count 	0
attr interpolationmode  none
attr source  dropPkBitError
attr title  "packets dropped/bit error, count"
scalar MultiCell2.pgw.lo0.lo 	droppedPkBitError:sum(packetBytes) 	0
attr interpolationmode  none
attr source  dropPkBitError
attr title  "packets dropped/bit error, sum(packetBytes)"
scalar MultiCell2.pgw.lo0.lo 	rcvdPkFromHL:count 	0
attr interpolationmode  none
attr source  packetReceivedFromUpper
attr title  "packets received from higher layer, count"
scalar MultiCell2.pgw.lo0.lo 	rcvdPkFromHL:sum(packetBytes) 	0
attr interpolationmode  none
attr source  packetReceivedFromUpper
attr title  "packets received from higher layer, sum(packetBytes)"
scalar MultiCell2.pgw.lo0.lo 	passedUpPk:count 	0
attr interpolationmode  none
attr source  packetSentToUpper
attr title  "packets passed to higher layer, count"
scalar MultiCell2.pgw.lo0.lo 	passedUpPk:sum(packetBytes) 	0
attr interpolationmode  none
attr source  packetSentToUpper
attr title  "packets passed to higher layer, sum(packetBytes)"
scalar MultiCell2.pgw.ppp[0].queue 	queueLength:max 	0
attr interpolationmode  sample-hold
attr title  "queue length, max"
scalar MultiCell2.pgw.ppp[0].queue 	queueLength:timeavg 	0
attr interpolationmode  sample-hold
attr title  "queue length, timeavg"
statistic MultiCell2.pgw.ppp[0].queue 	queueingTime:histogram
field count 202
field mean 0
field stddev 0
field sum 0
field sqrsum 0
field min 0
field max 0
attr interpolationmode  none
attr title  "queueing time, histogram"
bin	-INF	0
bin	-0.5	0
bin	-0.46666666666667	0
bin	-0.43333333333333	0
bin	-0.4	0
bin	-0.36666666666667	0
bin	-0.33333333333333	0
bin	-0.3	0
bin	-0.26666666666667	0
bin	-0.23333333333333	0
bin	-0.2	0
bin	-0.16666666666667	0
bin	-0.13333333333333	0
bin	-0.1	0
bin	-0.066666666666667	0
bin	-0.033333333333333	0
bin	0	202
bin	0.033333333333333	0
bin	0.066666666666667	0
bin	0.1	0
bin	0.13333333333333	0
bin	0.16666666666667	0
bin	0.2	0
bin	0.23333333333333	0
bin	0.26666666666667	0
bin	0.3	0
bin	0.33333333333333	0
bin	0.36666666666667	0
bin	0.4	0
bin	0.43333333333333	0
bin	0.46666666666667	0
bin	0.5	0
scalar MultiCell2.pgw.ppp[0].queue 	dropPk:count 	0
attr interpolationmode  none
attr source  dropPkByQueue
attr title  "dropped packets, count"
scalar MultiCell2.pgw.ppp[0].queue 	dropPk:sum(packetBytes) 	0
attr interpolationmode  none
attr source  dropPkByQueue
attr title  "dropped packets, sum(packetBytes)"
scalar MultiCell2.pgw.ppp[0].queue 	rcvdPk:count 	202
attr interpolationmode  none
attr title  "received packets, count"
scalar MultiCell2.pgw.ppp[0].queue 	rcvdPk:sum(packetBytes) 	19392
attr interpolationmode  none
attr title  "received packets, sum(packetBytes)"
scalar MultiCell2.pgw.ppp[0].ppp 	txState:timeavg 	6.3120212362533e-05
attr interpolationmode  sample-hold
attr title  "tx state, timeavg"
scalar MultiCell2.pgw.ppp[0].ppp 	droppedPkIfaceDown:count 	0
attr interpolationmode  none
attr source  dropPkIfaceDown
attr title  "packets dropped/interface down, count"
scalar MultiCell2.pgw.ppp[0].ppp 	droppedPkIfaceDown:sum(packetBytes) 	0
attr interpolationmode  none
attr source  dropPkIfaceDown
attr title  "packets dropped/interface down, sum(packetBytes)"
scalar MultiCell2.pgw.ppp[0].ppp 	droppedPkBitError:count 	0
attr interpolationmode  none
attr source  dropPkBitError
attr title  "packets dropped/bit error, count"
scalar MultiCell2.pgw.ppp[0].ppp 	droppedPkBitError:sum(packetBytes) 	0
attr interpolationmode  none
attr source  dropPkBitError
attr title  "packets dropped/bit error, sum(packetBytes)"
scalar MultiCell2.pgw.ppp[0].ppp 	rxPkOk:count 	0
attr interpolationmode  none
attr source  rxPkOk
attr title  "packets received OK, count"
scalar MultiCell2.pgw.ppp[0].ppp 	rxPkOk:sum(packetBytes) 	0
attr interpolationmode  none
attr source  rxPkOk
attr title  "packets received OK, sum(packetBytes)"
scalar MultiCell2.pgw.ppp[0].ppp 	rcvdPkFromHL:count 	202
attr interpolationmode  none
attr source  packetReceivedFromUpper
attr title  "packets received from higher layer, count"
scalar MultiCell2.pgw.ppp[0].ppp 	rcvdPkFromHL:sum(packetBytes) 	19392
attr interpolationmode  none
attr source  packetReceivedFromUpper
attr title  "packets received from higher layer, sum(packetBytes)"
scalar MultiCell2.pgw.ppp[0].ppp 	passedUpPk:count 	0
attr interpolationmode  none
attr source  packetSentToUpper
attr title  "packets passed to higher layer, count"
scalar MultiCell2.pgw.ppp[0].ppp 	passedUpPk:sum(packetBytes) 	0
attr interpolationmode  none
attr source  packetSentToUpper
attr title  "packets passed to higher layer, sum(packetBytes)"
scalar MultiCell2.pgw.ppp[0].ppp 	txPk:count 	202
attr interpolationmode  none
attr source  packetSentToLower
attr title  "packets transmitted, count"
scalar MultiCell2.pgw.ppp[0].ppp 	txPk:sum(packetBytes) 	20806
attr interpolationmode  none
attr source  packetSentToLower
attr title  "packets transmitted, sum(packetBytes)"
scalar MultiCell2.pgw.ppp[1].queue 	queueLength:max 	0
attr interpolationmode  sample-hold
attr title  "queue length, max"
scalar MultiCell2.pgw.ppp[1].queue 	queueLength:timeavg 	0
attr interpolationmode  sample-hold
attr title  "queue length, timeavg"
statistic MultiCell2.pgw.ppp[1].queue 	queueingTime:histogram
field count 248
field mean 0
field stddev 0
field sum 0
field sqrsum 0
field min 0
field max 0
attr interpolationmode  none
attr title  "queueing time, histogram"
bin	-INF	0
bin	-0.5	0
bin	-0.46666666666667	0
bin	-0.43333333333333	0
bin	-0.4	0
bin	-0.36666666666667	0
bin	-0.33333333333333	0
bin	-0.3	0
bin	-0.26666666666667	0
bin	-0.23333333333333	0
bin	-0.2	0
bin	-0.16666666666667	0
bin	-0.13333333333333	0
bin	-0.1	0
bin	-0.066666666666667	0
bin	-0.033333333333333	0
bin	0	248
bin	0.033333333333333	0
bin	0.066666666666667	0
bin	0.1	0
bin	0.13333333333333	0
bin	0.16666666666667	0
bin	0.2	0
bin	0.23333333333333	0
bin	0.26666666666667	0
bin	0.3	0
bin	0.33333333333333	0
bin	0.36666666666667	0
bin	0.4	0
bin	0.43333333333333	0
bin	0.46666666666667	0
bin	0.5	0
scalar MultiCell2.pgw.ppp[1].queue 	dropPk:count 	0
attr interpolationmode  none
attr source  dropPkByQueue
attr title  "dropped packets, count"
scalar MultiCell2.pgw.ppp[1].queue 	dropPk:sum(packetBytes) 	0
attr interpolationmode  none
attr source  dropPkByQueue
attr title  "dropped packets, sum(packetBytes)"
scalar MultiCell2.pgw.ppp[1].queue 	rcvdPk:count 	248
attr interpolationmode  none
attr title  "received packets, count"
scalar MultiCell2.pgw.ppp[1].queue 	rcvdPk:sum(packetBytes) 	23808
attr interpolationmode  none
attr title  "received packets, sum(packetBytes)"
scalar MultiCell2.pgw.ppp[1].ppp 	txState:timeavg 	7.7494122108456e-05
attr interpolationmode  sample-hold
attr title  "tx state, timeavg"
scalar MultiCell2.pgw.ppp[1].ppp 	droppedPkIfaceDown:count 	0
attr interpolationmode  none
attr source  dropPkIfaceDown
attr title  "packets dropped/interface down, count"
scalar MultiCell2.pgw.ppp[1].ppp 	droppedPkIfaceDown:sum(packetBytes) 	0
attr interpolationmode  none
attr source  dropPkIfaceDown
attr title  "packets dropped/interface down, sum(packetBytes)"
scalar MultiCell2.pgw.ppp[1].ppp 	droppedPkBitError:count 	0
attr interpolationmode  none
attr source  dropPkBitError
attr title  "packets dropped/bit error, count"
scalar MultiCell2.pgw.ppp[1].ppp 	droppedPkBitError:sum(packetBytes) 	0
attr interpolationmode  none
attr source  dropPkBitError
attr title  "packets dropped/bit error, sum(packetBytes)"
scalar MultiCell2.pgw.ppp[1].ppp 	rxPkOk:count 	0
attr interpolationmode  none
attr source  rxPkOk
attr title  "packets received OK, count"
scalar MultiCell2.pgw.ppp[1].ppp 	rxPkOk:sum(packetBytes) 	0
attr interpolationmode  none
attr source  rxPkOk
attr title  "packets received OK, sum(packetBytes)"
scalar MultiCell2.pgw.ppp[1].ppp 	rcvdPkFromHL:count 	248
attr interpolationmode  none
attr source  packetReceivedFromUpper
attr title  "packets received from higher layer, count"
scalar MultiCell2.pgw.ppp[1].ppp 	rcvdPkFromHL:sum(packetBytes) 	23808
attr interpolationmode  none
attr source  packetReceivedFromUpper
attr title  "packets received from higher layer, sum(packetBytes)"
scalar MultiCell2.pgw.ppp[1].ppp 	passedUpPk:count 	0
attr interpolationmode  none
attr source  packetSentToUpper
attr title  "packets passed to higher layer, count"
scalar MultiCell2.pgw.ppp[1].ppp 	passedUpPk:sum(packetBytes) 	0
attr interpolationmode  none
attr source  packetSentToUpper
attr title  "packets passed to higher layer, sum(packetBytes)"
scalar MultiCell2.pgw.ppp[1].ppp 	txPk:count 	248
attr interpolationmode  none
attr source  packetSentToLower
attr title  "packets transmitted, count"
scalar MultiCell2.pgw.ppp[1].ppp 	txPk:sum(packetBytes) 	25544
attr interpolationmode  none
attr source  packetSentToLower
attr title  "packets transmitted, sum(packetBytes)"
scalar MultiCell2.pgw.pppInterface.queue 	queueLength:max 	0
attr interpolationmode  sample-hold
attr title  "queue length, max"
scalar MultiCell2.pgw.pppInterface.queue 	queueLength:timeavg 	0
attr interpolationmode  sample-hold
attr title  "queue length, timeavg"
statistic MultiCell2.pgw.pppInterface.queue 	queueingTime:histogram
field count 0
field mean -nan
field stddev -nan
field sum 0
field sqrsum 0
field min -nan
field max -nan
attr interpolationmode  none
attr title  "queueing time, histogram"
bin	-INF	0
bin	-0.5	0
bin	-0.46666666666667	0
bin	-0.43333333333333	0
bin	-0.4	0
bin	-0.36666666666667	0
bin	-0.33333333333333	0
bin	-0.3	0
bin	-0.26666666666667	0
bin	-0.23333333333333	0
bin	-0.2	0
bin	-0.16666666666667	0
bin	-0.13333333333333	0
bin	-0.1	0
bin	-0.066666666666667	0
bin	-0.033333333333333	0
bin	0	0
bin	0.033333333333333	0
bin	0.066666666666667	0
bin	0.1	0
bin	0.13333333333333	0
bin	0.16666666666667	0
bin	0.2	0
bin	0.23333333333333	0
bin	0.26666666666667	0
bin	0.3	0
bin	0.33333333333333	0
bin	0.36666666666667	0
bin	0.4	0
bin	0.43333333333333	0
bin	0.46666666666667	0
bin	0.5	0
scalar MultiCell2.pgw.pppInterface.queue 	dropPk:count 	0
attr interpolationmode  none
attr source  dropPkByQueue
attr title  "dropped packets, count"
scalar MultiCell2.pgw.pppInterface.queue 	dropPk:sum(packetBytes) 	0
attr interpolationmode  none
attr source  dropPkByQueue
attr title  "dropped packets, sum(packetBytes)"
scalar MultiCell2.pgw.pppInterface.queue 	rcvdPk:count 	0
attr interpolationmode  none
attr title  "received packets, count"
scalar MultiCell2.pgw.pppInterface.queue 	rcvdPk:sum(packetBytes) 	0
attr interpolationmode  none
attr title  "received packets, sum(packetBytes)"
scalar MultiCell2.pgw.pppInterface.ppp 	txState:timeavg 	0
attr interpolationmode  sample-hold
attr title  "tx state, timeavg"
scalar MultiCell2.pgw.pppInterface.ppp 	droppedPkIfaceDown:count 	0
attr interpolationmode  none
attr source  dropPkIfaceDown
attr title  "packets dropped/interface down, count"
scalar MultiCell2.pgw.pppInterface.ppp 	droppedPkIfaceDown:sum(packetBytes) 	0
attr interpolationmode  none
attr source  dropPkIfaceDown
attr title  "packets dropped/interface down, sum(packetBytes)"
scalar MultiCell2.pgw.pppInterface.ppp 	droppedPkBitError:count 	0
attr interpolationmode  none
attr source  dropPkBitError
attr title  "packets dropped/bit error, count"
scalar MultiCell2.pgw.pppInterface.ppp 	droppedPkBitError:sum(packetBytes) 	0
attr interpolationmode  none
attr source  dropPkBitError
attr title  "packets dropped/bit error, sum(packetBytes)"
scalar MultiCell2.pgw.pppInterface.ppp 	rxPkOk:count 	450
attr interpolationmode  none
attr source  rxPkOk
attr title  "packets received OK, count"
scalar MultiCell2.pgw.pppInterface.ppp 	rxPkOk:sum(packetBytes) 	33750
attr interpolationmode  none
attr source  rxPkOk
attr title  "packets received OK, sum(packetBytes)"
scalar MultiCell2.pgw.pppInterface.ppp 	rcvdPkFromHL:count 	0
attr interpolationmode  none
attr source  packetReceivedFromUpper
attr title  "packets received from higher layer, count"
scalar MultiCell2.pgw.pppInterface.ppp 	rcvdPkFromHL:sum(packetBytes) 	0
attr interpolationmode  none
attr source  packetReceivedFromUpper
attr title  "packets received from higher layer, sum(packetBytes)"
scalar MultiCell2.pgw.pppInterface.ppp 	passedUpPk:count 	450
attr interpolationmode  none
attr source  packetSentToUpper
attr title  "packets passed to higher layer, count"
scalar MultiCell2.pgw.pppInterface.ppp 	passedUpPk:sum(packetBytes) 	30600
attr interpolationmode  none
attr source  packetSentToUpper
attr title  "packets passed to higher layer, sum(packetBytes)"
scalar MultiCell2.pgw.pppInterface.ppp 	txPk:count 	0
attr interpolationmode  none
attr source  packetSentToLower
attr title  "packets transmitted, count"
scalar MultiCell2.pgw.pppInterface.ppp 	txPk:sum(packetBytes) 	0
attr interpolationmode  none
attr source  packetSentToLower
attr title  "packets transmitted, sum(packetBytes)"
scalar MultiCell2.pgw.udp 	droppedPkBadChecksum:count 	0
attr interpolationmode  none
attr title  "packets dropped (checksum error), count"
scalar MultiCell2.pgw.udp 	droppedPkWrongPort:count 	0
attr interpolationmode  none
attr title  "packets dropped (wrong port), count"
scalar MultiCell2.pgw.udp 	passedUpPk:count 	0
attr interpolationmode  none
attr title  "packets passed up, count"
scalar MultiCell2.pgw.udp 	rcvdPk:count 	0
attr interpolationmode  none
attr source  rcvdPk
attr title  "packets received, count"
scalar MultiCell2.pgw.udp 	rcvdPk:sum(packetBytes) 	0
attr interpolationmode  none
attr source  rcvdPk
attr title  "packets received, sum(packetBytes)"
scalar MultiCell2.pgw.udp 	sentPk:count 	450
attr interpolationmode  none
attr source  sentPk
attr title  "packets sent, count"
scalar MultiCell2.pgw.udp 	sentPk:sum(packetBytes) 	34200
attr interpolationmode  none
attr source  sentPk
attr title  "packets sent, sum(packetBytes)"
scalar MultiCell2.eNodeB1.nic.pdcpRrc 	sentPacketToLowerLayer:count 	202
attr interpolationmode  none
attr source  sentPacketToLowerLayer
scalar MultiCell2.eNodeB1.nic.pdcpRrc 	sentPacketToLowerLayer:sum(packetBytes) 	13938
attr interpolationmode  none
attr source  sentPacketToLowerLayer
scalar MultiCell2.eNodeB1.nic.pdcpRrc 	sentPacketToUpperLayer:count 	0
attr interpolationmode  none
attr source  sentPacketToUpperLayer
scalar MultiCell2.eNodeB1.nic.pdcpRrc 	sentPacketToUpperLayer:sum(packetBytes) 	0
attr interpolationmode  none
attr source  sentPacketToUpperLayer
scalar MultiCell2.eNodeB1.nic.pdcpRrc 	receivedPacketFromLowerLayer:count 	0
attr interpolationmode  none
attr source  receivedPacketFromLowerLayer
scalar MultiCell2.eNodeB1.nic.pdcpRrc 	receivedPacketFromLowerLayer:sum(packetBytes) 	0
attr interpolationmode  none
attr source  receivedPacketFromLowerLayer
scalar MultiCell2.eNodeB1.nic.pdcpRrc 	receivedPacketFromUpperLayer:count 	202
attr interpolationmode  none
attr source  receivedPacketFromUpperLayer
scalar MultiCell2.eNodeB1.nic.pdcpRrc 	receivedPacketFromUpperLayer:sum(packetBytes) 	13736
attr interpolationmode  none
attr source  receivedPacketFromUpperLayer
scalar MultiCell2.eNodeB1.nic.rlc.um 	rlcCellPacketLossDl:lteAvg 	0
attr source  rlcCellPacketLossDl
attr title  "rlc Cell Packet Loss, lteAvg"
attr unit  ""
scalar MultiCell2.eNodeB1.nic.rlc.um 	rlcCellThroughputDl:lteRate 	5283.4285714286
attr source  rlcCellThroughputDl
attr title  "Cell Throughput at the rlc layer DL, lteRate"
attr unit  Bps
scalar MultiCell2.eNodeB1.nic.mac 	cqiDlMuMimo4:lteAvg 	13.306818181818
attr source  cqiDlMuMimo4
attr title  "Average cqi MuMimo band 4, lteAvg"
attr unit  cqi
scalar MultiCell2.eNodeB1.nic.mac 	cqiDlMuMimo4:lteAvg 	9.4454545454545
attr source  cqiDlMuMimo4
attr title  "Average cqi MuMimo band 4, lteAvg"
attr unit  cqi
scalar MultiCell2.eNodeB1.nic.mac 	cqiDlMuMimo3:lteAvg 	13.504545454545
attr source  cqiDlMuMimo3
attr title  "Average cqi MuMimo band 3, lteAvg"
attr unit  cqi
scalar MultiCell2.eNodeB1.nic.mac 	cqiDlMuMimo3:lteAvg 	7.3090909090909
attr source  cqiDlMuMimo3
attr title  "Average cqi MuMimo band 3, lteAvg"
attr unit  cqi
scalar MultiCell2.eNodeB1.nic.mac 	cqiDlMuMimo2:lteAvg 	13.306818181818
attr source  cqiDlMuMimo2
attr title  "Average cqi MuMimo band 2, lteAvg"
attr unit  cqi
scalar MultiCell2.eNodeB1.nic.mac 	cqiDlMuMimo2:lteAvg 	7.1522727272727
attr source  cqiDlMuMimo2
attr title  "Average cqi MuMimo band 2, lteAvg"
attr unit  cqi
scalar MultiCell2.eNodeB1.nic.mac 	cqiDlMuMimo1:lteAvg 	13.522727272727
attr source  cqiDlMuMimo1
attr title  "Average cqi MuMimo band 1, lteAvg"
attr unit  cqi
scalar MultiCell2.eNodeB1.nic.mac 	cqiDlMuMimo1:lteAvg 	3.2840909090909
attr source  cqiDlMuMimo1
attr title  "Average cqi MuMimo band 1, lteAvg"
attr unit  cqi
scalar MultiCell2.eNodeB1.nic.mac 	cqiDlMuMimo0:lteAvg 	12.795454545455
attr source  cqiDlMuMimo0
attr title  "Average cqi MuMimo band 0, lteAvg"
attr unit  cqi
scalar MultiCell2.eNodeB1.nic.mac 	cqiDlMuMimo0:lteAvg 	5.4204545454545
attr source  cqiDlMuMimo0
attr title  "Average cqi MuMimo band 0, lteAvg"
attr unit  cqi
scalar MultiCell2.eNodeB1.nic.mac 	cqiDlTxDiv4:lteAvg 	13.759090909091
attr source  cqiDlTxDiv4
attr title  "Average cqi TxDiv band 4, lteAvg"
attr unit  cqi
scalar MultiCell2.eNodeB1.nic.mac 	cqiDlTxDiv4:lteAvg 	13.759090909091
attr source  cqiDlTxDiv4
attr title  "Average cqi TxDiv band 4, lteAvg"
attr unit  cqi
scalar MultiCell2.eNodeB1.nic.mac 	cqiDlTxDiv3:lteAvg 	13.759090909091
attr source  cqiDlTxDiv3
attr title  "Average cqi TxDiv band 3, lteAvg"
attr unit  cqi
scalar MultiCell2.eNodeB1.nic.mac 	cqiDlTxDiv3:lteAvg 	13.504545454545
attr source  cqiDlTxDiv3
attr title  "Average cqi TxDiv band 3, lteAvg"
attr unit  cqi
scalar MultiCell2.eNodeB1.nic.mac 	cqiDlTxDiv2:lteAvg 	13.522727272727
attr source  cqiDlTxDiv2
attr title  "Average cqi TxDiv band 2, lteAvg"
attr unit  cqi
scalar MultiCell2.eNodeB1.nic.mac 	cqiDlTxDiv2:lteAvg 	13.522727272727
attr source  cqiDlTxDiv2
attr title  "Average cqi TxDiv band 2, lteAvg"
attr unit  cqi
scalar MultiCell2.eNodeB1.nic.mac 	cqiDlTxDiv1:lteAvg 	13.522727272727
attr source  cqiDlTxDiv1
attr title  "Average cqi TxDiv band 1, lteAvg"
attr unit  cqi
scalar MultiCell2.eNodeB1.nic.mac 	cqiDlTxDiv1:lteAvg 	9.8795454545455
attr source  cqiDlTxDiv1
attr title  "Average cqi TxDiv band 1, lteAvg"
attr unit  cqi
scalar MultiCell2.eNodeB1.nic.mac 	cqiDlTxDiv0:lteAvg 	13.227272727273
attr source  cqiDlTxDiv0
attr title  "Average cqi TxDiv band 0, lteAvg"
attr unit  cqi
scalar MultiCell2.eNodeB1.nic.mac 	cqiDlTxDiv0:lteAvg 	12.090909090909
attr source  cqiDlTxDiv0
attr title  "Average cqi TxDiv band 0, lteAvg"
attr unit  cqi
scalar MultiCell2.eNodeB1.nic.mac 	cqiDlSpmux4:lteAvg 	11.727272727273
attr source  cqiDlSpmux4
attr title  "Average cqi Spmux band 4, lteAvg"
attr unit  cqi
scalar MultiCell2.eNodeB1.nic.mac 	cqiDlSpmux4:lteAvg 	8.3045454545455
attr source  cqiDlSpmux4
attr title  "Average cqi Spmux band 4, lteAvg"
attr unit  cqi
scalar MultiCell2.eNodeB1.nic.mac 	cqiDlSpmux3:lteAvg 	12.313636363636
attr source  cqiDlSpmux3
attr title  "Average cqi Spmux band 3, lteAvg"
attr unit  cqi
scalar MultiCell2.eNodeB1.nic.mac 	cqiDlSpmux3:lteAvg 	6.6136363636364
attr source  cqiDlSpmux3
attr title  "Average cqi Spmux band 3, lteAvg"
attr unit  cqi
scalar MultiCell2.eNodeB1.nic.mac 	cqiDlSpmux2:lteAvg 	12.875
attr source  cqiDlSpmux2
attr title  "Average cqi Spmux band 2, lteAvg"
attr unit  cqi
scalar MultiCell2.eNodeB1.nic.mac 	cqiDlSpmux2:lteAvg 	6.5681818181818
attr source  cqiDlSpmux2
attr title  "Average cqi Spmux band 2, lteAvg"
attr unit  cqi
scalar MultiCell2.eNodeB1.nic.mac 	cqiDlSpmux1:lteAvg 	13.009090909091
attr source  cqiDlSpmux1
attr title  "Average cqi Spmux band 1, lteAvg"
attr unit  cqi
scalar MultiCell2.eNodeB1.nic.mac 	cqiDlSpmux1:lteAvg 	3.2840909090909
attr source  cqiDlSpmux1
attr title  "Average cqi Spmux band 1, lteAvg"
attr unit  cqi
scalar MultiCell2.eNodeB1.nic.mac 	cqiDlSpmux0:lteAvg 	11.715909090909
attr source  cqiDlSpmux0
attr title  "Average cqi Spmux band 0, lteAvg"
attr unit  cqi
scalar MultiCell2.eNodeB1.nic.mac 	cqiDlSpmux0:lteAvg 	5.3181818181818
attr source  cqiDlSpmux0
attr title  "Average cqi Spmux band 0, lteAvg"
attr unit  cqi
scalar MultiCell2.eNodeB1.nic.mac 	cqiDlSiso4:lteAvg 	13.306818181818
attr source  cqiDlSiso4
attr title  "Average cqi siso band 4, lteAvg"
attr unit  cqi
scalar MultiCell2.eNodeB1.nic.mac 	cqiDlSiso4:lteAvg 	9.4454545454545
attr source  cqiDlSiso4
attr title  "Average cqi siso band 4, lteAvg"
attr unit  cqi
scalar MultiCell2.eNodeB1.nic.mac 	cqiDlSiso3:lteAvg 	13.504545454545
attr source  cqiDlSiso3
attr title  "Average cqi siso band 3, lteAvg"
attr unit  cqi
scalar MultiCell2.eNodeB1.nic.mac 	cqiDlSiso3:lteAvg 	7.3090909090909
attr source  cqiDlSiso3
attr title  "Average cqi siso band 3, lteAvg"
attr unit  cqi
scalar MultiCell2.eNodeB1.nic.mac 	cqiDlSiso2:lteAvg 	13.306818181818
attr source  cqiDlSiso2
attr title  "Average cqi siso band 2, lteAvg"
attr unit  cqi
scalar MultiCell2.eNodeB1.nic.mac 	cqiDlSiso2:lteAvg 	7.1522727272727
attr source  cqiDlSiso2
attr title  "Average cqi siso band 2, lteAvg"
attr unit  cqi
scalar MultiCell2.eNodeB1.nic.mac 	cqiDlSiso1:lteAvg 	13.522727272727
attr source  cqiDlSiso1
attr title  "Average cqi siso band 1, lteAvg"
attr unit  cqi
scalar MultiCell2.eNodeB1.nic.mac 	cqiDlSiso1:lteAvg 	3.2840909090909
attr source  cqiDlSiso1
attr title  "Average cqi siso band 1, lteAvg"
attr unit  cqi
scalar MultiCell2.eNodeB1.nic.mac 	cqiDlSiso0:lteAvg 	12.795454545455
attr source  cqiDlSiso0
attr title  "Average cqi siso band 0, lteAvg"
attr unit  cqi
scalar MultiCell2.eNodeB1.nic.mac 	cqiDlSiso0:lteAvg 	5.4204545454545
attr source  cqiDlSiso0
attr title  "Average cqi siso band 0, lteAvg"
attr unit  cqi
scalar MultiCell2.eNodeB1.nic.mac 	depletedPowerUl:lteAvg 	0
attr source  depletedPowerUl
attr title  "LTE ENodeB depleted power Ul, lteAvg"
attr unit  watts
scalar MultiCell2.eNodeB1.nic.mac 	depletedPowerDl:lteAvg 	262.08461130072
attr source  depletedPowerDl
attr title  "LTE ENodeB depleted power Dl, lteAvg"
attr unit  watts
scalar MultiCell2.eNodeB1.nic.mac 	avgServedBlocksUl:lteAvg 	0
attr source  avgServedBlocksUl
attr title  "LTE Avg Served Blocks Ul, lteAvg"
attr unit  blocks
scalar MultiCell2.eNodeB1.nic.mac 	avgServedBlocksDl:lteAvg 	0.5544178991278
attr source  avgServedBlocksDl
attr title  "LTE Avg Served Blocks Dl, lteAvg"
attr unit  blocks
scalar MultiCell2.eNodeB1.nic.mac 	cellBlocksUtilizationUl:lteAvg 	0
attr source  cellBlocksUtilizationUl
attr title  "LTE Cell Blocks Utilization Ul, lteAvg"
attr unit  blocks
scalar MultiCell2.eNodeB1.nic.mac 	cellBlocksUtilizationDl:lteAvg 	0.092402983187966
attr source  cellBlocksUtilizationDl
attr title  "LTE Cell Blocks Utilization Dl, lteAvg"
attr unit  blocks
scalar MultiCell2.eNodeB1.nic.mac 	measuredItbs:mean 	10.994764397906
attr source  measuredItbs
attr title  "TBS index, mean"
attr unit  ""
scalar MultiCell2.eNodeB1.nic.mac 	harqErrorRate_4th_D2D:mean 	-nan
attr source  harqErrorRate_4th_D2D
attr title  "Harq Error Rate D2D, mean"
attr unit  ""
scalar MultiCell2.eNodeB1.nic.mac 	harqErrorRate_4th_Dl:mean 	-nan
attr source  harqErrorRate_4th_Dl
attr title  "Harq Error Rate Dl, mean"
attr unit  ""
scalar MultiCell2.eNodeB1.nic.mac 	harqErrorRate_4th_Ul:mean 	-nan
attr source  harqErrorRate_4th_Ul
attr title  "Harq Error Rate Ul, mean"
attr unit  ""
scalar MultiCell2.eNodeB1.nic.mac 	harqErrorRate_3rd_D2D:mean 	-nan
attr source  harqErrorRate_3rd_D2D
attr title  "Harq Error Rate D2D, mean"
attr unit  ""
scalar MultiCell2.eNodeB1.nic.mac 	harqErrorRate_3rd_Dl:mean 	-nan
attr source  harqErrorRate_3rd_Dl
attr title  "Harq Error Rate Dl, mean"
attr unit  ""
scalar MultiCell2.eNodeB1.nic.mac 	harqErrorRate_3rd_Ul:mean 	-nan
attr source  harqErrorRate_3rd_Ul
attr title  "Harq Error Rate Ul, mean"
attr unit  ""
scalar MultiCell2.eNodeB1.nic.mac 	harqErrorRate_2nd_D2D:mean 	-nan
attr source  harqErrorRate_2nd_D2D
attr title  "Harq Error Rate D2D, mean"
attr unit  ""
scalar MultiCell2.eNodeB1.nic.mac 	harqErrorRate_2nd_Dl:mean 	-nan
attr source  harqErrorRate_2nd_Dl
attr title  "Harq Error Rate Dl, mean"
attr unit  ""
scalar MultiCell2.eNodeB1.nic.mac 	harqErrorRate_2nd_Ul:mean 	-nan
attr source  harqErrorRate_2nd_Ul
attr title  "Harq Error Rate Ul, mean"
attr unit  ""
scalar MultiCell2.eNodeB1.nic.mac 	harqErrorRate_1st_D2D:mean 	-nan
attr source  harqErrorRate_1st_D2D
attr title  "Harq Error Rate D2D, mean"
attr unit  ""
scalar MultiCell2.eNodeB1.nic.mac 	harqErrorRate_1st_Dl:mean 	-nan
attr source  harqErrorRate_1st_Dl
attr title  "Harq Error Rate Dl, mean"
attr unit  ""
scalar MultiCell2.eNodeB1.nic.mac 	harqErrorRate_1st_Ul:mean 	-nan
attr source  harqErrorRate_1st_Ul
attr title  "Harq Error Rate Ul, mean"
attr unit  ""
scalar MultiCell2.eNodeB1.nic.mac 	harqErrorRateD2D:mean 	-nan
attr source  harqErrorRateD2D
attr title  "Harq Error Rate D2D, mean"
attr unit  ""
scalar MultiCell2.eNodeB1.nic.mac 	harqErrorRateDl:mean 	-nan
attr source  harqErrorRateDl
attr title  "Harq Error Rate Dl, mean"
attr unit  ""
scalar MultiCell2.eNodeB1.nic.mac 	harqErrorRateUl:mean 	-nan
attr source  harqErrorRateUl
attr title  "Harq Error Rate Ul, mean"
attr unit  ""
scalar MultiCell2.eNodeB1.nic.mac 	macPacketLossD2D:mean 	-nan
attr source  macPacketLossD2D
attr title  "Mac Packet Loss D2D, mean"
attr unit  ""
scalar MultiCell2.eNodeB1.nic.mac 	macPacketLossDl:mean 	-nan
attr source  macPacketLossDl
attr title  "Mac Packet Loss Dl, mean"
attr unit  ""
scalar MultiCell2.eNodeB1.nic.mac 	macPacketLossUl:mean 	-nan
attr source  macPacketLossUl
attr title  "Mac Packet Loss Ul, mean"
attr unit  ""
scalar MultiCell2.eNodeB1.nic.mac 	macCellPacketLossD2D:mean 	-nan
attr source  macCellPacketLossD2D
attr title  "Mac Cell Packet Loss D2D, mean"
attr unit  ""
scalar MultiCell2.eNodeB1.nic.mac 	macCellPacketLossUl:mean 	-nan
attr source  macCellPacketLossUl
attr title  "Mac Cell Packet Loss Ul, mean"
attr unit  ""
scalar MultiCell2.eNodeB1.nic.mac 	macCellPacketLossDl:mean 	0
attr source  macCellPacketLossDl
attr title  "Mac Cell Packet Loss Dl, mean"
attr unit  ""
scalar MultiCell2.eNodeB1.nic.mac 	macCellThroughputDl:lteRate 	5864
attr source  macCellThroughputDl
attr title  "Cell Throughput at the MAC layer DL, lteRate"
attr unit  Bps
scalar MultiCell2.eNodeB1.nic.mac 	sentPacketToLowerLayer:count 	383
attr interpolationmode  none
attr source  sentPacketToLowerLayer
scalar MultiCell2.eNodeB1.nic.mac 	sentPacketToLowerLayer:sum(packetBytes) 	0
attr interpolationmode  none
attr source  sentPacketToLowerLayer
scalar MultiCell2.eNodeB1.nic.mac 	sentPacketToUpperLayer:count 	382
attr interpolationmode  none
attr source  sentPacketToUpperLayer
scalar MultiCell2.eNodeB1.nic.mac 	sentPacketToUpperLayer:sum(packetBytes) 	0
attr interpolationmode  none
attr source  sentPacketToUpperLayer
scalar MultiCell2.eNodeB1.nic.mac 	receivedPacketFromLowerLayer:count 	1263
attr interpolationmode  none
attr source  receivedPacketFromLowerLayer
scalar MultiCell2.eNodeB1.nic.mac 	receivedPacketFromLowerLayer:sum(packetBytes) 	0
attr interpolationmode  none
attr source  receivedPacketFromLowerLayer
scalar MultiCell2.eNodeB1.nic.mac 	receivedPacketFromUpperLayer:count 	584
attr interpolationmode  none
attr source  receivedPacketFromUpperLayer
scalar MultiCell2.eNodeB1.nic.mac 	receivedPacketFromUpperLayer:sum(packetBytes) 	28640
attr interpolationmode  none
attr source  receivedPacketFromUpperLayer
scalar MultiCell2.eNodeB1.ppp.queue 	queueLength:max 	0
attr interpolationmode  sample-hold
attr title  "queue length, max"
scalar MultiCell2.eNodeB1.ppp.queue 	queueLength:timeavg 	0
attr interpolationmode  sample-hold
attr title  "queue length, timeavg"
statistic MultiCell2.eNodeB1.ppp.queue 	queueingTime:histogram
field count 0
field mean -nan
field stddev -nan
field sum 0
field sqrsum 0
field min -nan
field max -nan
attr interpolationmode  none
attr title  "queueing time, histogram"
bin	-INF	0
bin	-0.5	0
bin	-0.46666666666667	0
bin	-0.43333333333333	0
bin	-0.4	0
bin	-0.36666666666667	0
bin	-0.33333333333333	0
bin	-0.3	0
bin	-0.26666666666667	0
bin	-0.23333333333333	0
bin	-0.2	0
bin	-0.16666666666667	0
bin	-0.13333333333333	0
bin	-0.1	0
bin	-0.066666666666667	0
bin	-0.033333333333333	0
bin	0	0
bin	0.033333333333333	0
bin	0.066666666666667	0
bin	0.1	0
bin	0.13333333333333	0
bin	0.16666666666667	0
bin	0.2	0
bin	0.23333333333333	0
bin	0.26666666666667	0
bin	0.3	0
bin	0.33333333333333	0
bin	0.36666666666667	0
bin	0.4	0
bin	0.43333333333333	0
bin	0.46666666666667	0
bin	0.5	0
scalar MultiCell2.eNodeB1.ppp.queue 	dropPk:count 	0
attr interpolationmode  none
attr source  dropPkByQueue
attr title  "dropped packets, count"
scalar MultiCell2.eNodeB1.ppp.queue 	dropPk:sum(packetBytes) 	0
attr interpolationmode  none
attr source  dropPkByQueue
attr title  "dropped packets, sum(packetBytes)"
scalar MultiCell2.eNodeB1.ppp.queue 	rcvdPk:count 	0
attr interpolationmode  none
attr title  "received packets, count"
scalar MultiCell2.eNodeB1.ppp.queue 	rcvdPk:sum(packetBytes) 	0
attr interpolationmode  none
attr title  "received packets, sum(packetBytes)"
scalar MultiCell2.eNodeB1.ppp.ppp 	txState:timeavg 	0
attr interpolationmode  sample-hold
attr title  "tx state, timeavg"
scalar MultiCell2.eNodeB1.ppp.ppp 	droppedPkIfaceDown:count 	0
attr interpolationmode  none
attr source  dropPkIfaceDown
attr title  "packets dropped/interface down, count"
scalar MultiCell2.eNodeB1.ppp.ppp 	droppedPkIfaceDown:sum(packetBytes) 	0
attr interpolationmode  none
attr source  dropPkIfaceDown
attr title  "packets dropped/interface down, sum(packetBytes)"
scalar MultiCell2.eNodeB1.ppp.ppp 	droppedPkBitError:count 	0
attr interpolationmode  none
attr source  dropPkBitError
attr title  "packets dropped/bit error, count"
scalar MultiCell2.eNodeB1.ppp.ppp 	droppedPkBitError:sum(packetBytes) 	0
attr interpolationmode  none
attr source  dropPkBitError
attr title  "packets dropped/bit error, sum(packetBytes)"
scalar MultiCell2.eNodeB1.ppp.ppp 	rxPkOk:count 	202
attr interpolationmode  none
attr source  rxPkOk
attr title  "packets received OK, count"
scalar MultiCell2.eNodeB1.ppp.ppp 	rxPkOk:sum(packetBytes) 	20806
attr interpolationmode  none
attr source  rxPkOk
attr title  "packets received OK, sum(packetBytes)"
scalar MultiCell2.eNodeB1.ppp.ppp 	rcvdPkFromHL:count 	0
attr interpolationmode  none
attr source  packetReceivedFromUpper
attr title  "packets received from higher layer, count"
scalar MultiCell2.eNodeB1.ppp.ppp 	rcvdPkFromHL:sum(packetBytes) 	0
attr interpolationmode  none
attr source  packetReceivedFromUpper
attr title  "packets received from higher layer, sum(packetBytes)"
scalar MultiCell2.eNodeB1.ppp.ppp 	passedUpPk:count 	202
attr interpolationmode  none
attr source  packetSentToUpper
attr title  "packets passed to higher layer, count"
scalar MultiCell2.eNodeB1.ppp.ppp 	passedUpPk:sum(packetBytes) 	19392
attr interpolationmode  none
attr source  packetSentToUpper
attr title  "packets passed to higher layer, sum(packetBytes)"
scalar MultiCell2.eNodeB1.ppp.ppp 	txPk:count 	0
attr interpolationmode  none
attr source  packetSentToLower
attr title  "packets transmitted, count"
scalar MultiCell2.eNodeB1.ppp.ppp 	txPk:sum(packetBytes) 	0
attr interpolationmode  none
attr source  packetSentToLower
attr title  "packets transmitted, sum(packetBytes)"
scalar MultiCell2.eNodeB1.x2ppp[0].queue 	queueLength:max 	0
attr interpolationmode  sample-hold
attr title  "queue length, max"
scalar MultiCell2.eNodeB1.x2ppp[0].queue 	queueLength:timeavg 	0
attr interpolationmode  sample-hold
attr title  "queue length, timeavg"
statistic MultiCell2.eNodeB1.x2ppp[0].queue 	queueingTime:histogram
field count 0
field mean -nan
field stddev -nan
field sum 0
field sqrsum 0
field min -nan
field max -nan
attr interpolationmode  none
attr title  "queueing time, histogram"
bin	-INF	0
bin	-0.5	0
bin	-0.46666666666667	0
bin	-0.43333333333333	0
bin	-0.4	0
bin	-0.36666666666667	0
bin	-0.33333333333333	0
bin	-0.3	0
bin	-0.26666666666667	0
bin	-0.23333333333333	0
bin	-0.2	0
bin	-0.16666666666667	0
bin	-0.13333333333333	0
bin	-0.1	0
bin	-0.066666666666667	0
bin	-0.033333333333333	0
bin	0	0
bin	0.033333333333333	0
bin	0.066666666666667	0
bin	0.1	0
bin	0.13333333333333	0
bin	0.16666666666667	0
bin	0.2	0
bin	0.23333333333333	0
bin	0.26666666666667	0
bin	0.3	0
bin	0.33333333333333	0
bin	0.36666666666667	0
bin	0.4	0
bin	0.43333333333333	0
bin	0.46666666666667	0
bin	0.5	0
scalar MultiCell2.eNodeB1.x2ppp[0].queue 	dropPk:count 	0
attr interpolationmode  none
attr source  dropPkByQueue
attr title  "dropped packets, count"
scalar MultiCell2.eNodeB1.x2ppp[0].queue 	dropPk:sum(packetBytes) 	0
attr interpolationmode  none
attr source  dropPkByQueue
attr title  "dropped packets, sum(packetBytes)"
scalar MultiCell2.eNodeB1.x2ppp[0].queue 	rcvdPk:count 	0
attr interpolationmode  none
attr title  "received packets, count"
scalar MultiCell2.eNodeB1.x2ppp[0].queue 	rcvdPk:sum(packetBytes) 	0
attr interpolationmode  none
attr title  "received packets, sum(packetBytes)"
scalar MultiCell2.eNodeB1.x2ppp[0].ppp 	txState:timeavg 	0
attr interpolationmode  sample-hold
attr title  "tx state, timeavg"
scalar MultiCell2.eNodeB1.x2ppp[0].ppp 	droppedPkIfaceDown:count 	0
attr interpolationmode  none
attr source  dropPkIfaceDown
attr title  "packets dropped/interface down, count"
scalar MultiCell2.eNodeB1.x2ppp[0].ppp 	droppedPkIfaceDown:sum(packetBytes) 	0
attr interpolationmode  none
attr source  dropPkIfaceDown
attr title  "packets dropped/interface down, sum(packetBytes)"
scalar MultiCell2.eNodeB1.x2ppp[0].ppp 	droppedPkBitError:count 	0
attr interpolationmode  none
attr source  dropPkBitError
attr title  "packets dropped/bit error, count"
scalar MultiCell2.eNodeB1.x2ppp[0].ppp 	droppedPkBitError:sum(packetBytes) 	0
attr interpolationmode  none
attr source  dropPkBitError
attr title  "packets dropped/bit error, sum(packetBytes)"
scalar MultiCell2.eNodeB1.x2ppp[0].ppp 	rxPkOk:count 	0
attr interpolationmode  none
attr source  rxPkOk
attr title  "packets received OK, count"
scalar MultiCell2.eNodeB1.x2ppp[0].ppp 	rxPkOk:sum(packetBytes) 	0
attr interpolationmode  none
attr source  rxPkOk
attr title  "packets received OK, sum(packetBytes)"
scalar MultiCell2.eNodeB1.x2ppp[0].ppp 	rcvdPkFromHL:count 	0
attr interpolationmode  none
attr source  packetReceivedFromUpper
attr title  "packets received from higher layer, count"
scalar MultiCell2.eNodeB1.x2ppp[0].ppp 	rcvdPkFromHL:sum(packetBytes) 	0
attr interpolationmode  none
attr source  packetReceivedFromUpper
attr title  "packets received from higher layer, sum(packetBytes)"
scalar MultiCell2.eNodeB1.x2ppp[0].ppp 	passedUpPk:count 	0
attr interpolationmode  none
attr source  packetSentToUpper
attr title  "packets passed to higher layer, count"
scalar MultiCell2.eNodeB1.x2ppp[0].ppp 	passedUpPk:sum(packetBytes) 	0
attr interpolationmode  none
attr source  packetSentToUpper
attr title  "packets passed to higher layer, sum(packetBytes)"
scalar MultiCell2.eNodeB1.x2ppp[0].ppp 	txPk:count 	0
attr interpolationmode  none
attr source  packetSentToLower
attr title  "packets transmitted, count"
scalar MultiCell2.eNodeB1.x2ppp[0].ppp 	txPk:sum(packetBytes) 	0
attr interpolationmode  none
attr source  packetSentToLower
attr title  "packets transmitted, sum(packetBytes)"
scalar MultiCell2.eNodeB1.networkLayer.arp 	failedARPResolution:count 	0
attr title  "ARP failed resolutions, count"
scalar MultiCell2.eNodeB1.networkLayer.arp 	completedARPResolution:count 	0
attr title  "ARP completed resolutions, count"
scalar MultiCell2.eNodeB1.networkLayer.arp 	initiatedARPResolution:count 	0
attr title  "ARP initiated resolutions, count"
scalar MultiCell2.eNodeB1.networkLayer.arp 	sentReply:count 	0
attr title  "ARP replies sent, count"
scalar MultiCell2.eNodeB1.networkLayer.arp 	sentReq:count 	0
attr title  "ARP request sent, count"
scalar MultiCell2.eNodeB1.udp 	droppedPkBadChecksum:count 	0
attr interpolationmode  none
attr title  "packets dropped (checksum error), count"
scalar MultiCell2.eNodeB1.udp 	droppedPkWrongPort:count 	0
attr interpolationmode  none
attr title  "packets dropped (wrong port), count"
scalar MultiCell2.eNodeB1.udp 	passedUpPk:count 	202
attr interpolationmode  none
attr title  "packets passed up, count"
scalar MultiCell2.eNodeB1.udp 	rcvdPk:count 	202
attr interpolationmode  none
attr source  rcvdPk
attr title  "packets received, count"
scalar MultiCell2.eNodeB1.udp 	rcvdPk:sum(packetBytes) 	15352
attr interpolationmode  none
attr source  rcvdPk
attr title  "packets received, sum(packetBytes)"
scalar MultiCell2.eNodeB1.udp 	sentPk:count 	0
attr interpolationmode  none
attr source  sentPk
attr title  "packets sent, count"
scalar MultiCell2.eNodeB1.udp 	sentPk:sum(packetBytes) 	0
attr interpolationmode  none
attr source  sentPk
attr title  "packets sent, sum(packetBytes)"
scalar MultiCell2.eNodeB2.nic.pdcpRrc 	sentPacketToLowerLayer:count 	248
attr interpolationmode  none
attr source  sentPacketToLowerLayer
scalar MultiCell2.eNodeB2.nic.pdcpRrc 	sentPacketToLowerLayer:sum(packetBytes) 	17112
attr interpolationmode  none
attr source  sentPacketToLowerLayer
scalar MultiCell2.eNodeB2.nic.pdcpRrc 	sentPacketToUpperLayer:count 	0
attr interpolationmode  none
attr source  sentPacketToUpperLayer
scalar MultiCell2.eNodeB2.nic.pdcpRrc 	sentPacketToUpperLayer:sum(packetBytes) 	0
attr interpolationmode  none
attr source  sentPacketToUpperLayer
scalar MultiCell2.eNodeB2.nic.pdcpRrc 	receivedPacketFromLowerLayer:count 	0
attr interpolationmode  none
attr source  receivedPacketFromLowerLayer
scalar MultiCell2.eNodeB2.nic.pdcpRrc 	receivedPacketFromLowerLayer:sum(packetBytes) 	0
attr interpolationmode  none
attr source  receivedPacketFromLowerLayer
scalar MultiCell2.eNodeB2.nic.pdcpRrc 	receivedPacketFromUpperLayer:count 	248
attr interpolationmode  none
attr source  receivedPacketFromUpperLayer
scalar MultiCell2.eNodeB2.nic.pdcpRrc 	receivedPacketFromUpperLayer:sum(packetBytes) 	16864
attr interpolationmode  none
attr source  receivedPacketFromUpperLayer
scalar MultiCell2.eNodeB2.nic.rlc.um 	rlcCellPacketLossDl:lteAvg 	0
attr source  rlcCellPacketLossDl
attr title  "rlc Cell Packet Loss, lteAvg"
attr unit  ""
scalar MultiCell2.eNodeB2.nic.rlc.um 	rlcCellThroughputDl:lteRate 	6536.2872421696
attr source  rlcCellThroughputDl
attr title  "Cell Throughput at the rlc layer DL, lteRate"
attr unit  Bps
scalar MultiCell2.eNodeB2.nic.mac 	cqiDlMuMimo4:lteAvg 	9.7204545454545
attr source  cqiDlMuMimo4
attr title  "Average cqi MuMimo band 4, lteAvg"
attr unit  cqi
scalar MultiCell2.eNodeB2.nic.mac 	cqiDlMuMimo4:lteAvg 	10.668181818182
attr source  cqiDlMuMimo4
attr title  "Average cqi MuMimo band 4, lteAvg"
attr unit  cqi
scalar MultiCell2.eNodeB2.nic.mac 	cqiDlMuMimo3:lteAvg 	12.35
attr source  cqiDlMuMimo3
attr title  "Average cqi MuMimo band 3, lteAvg"
attr unit  cqi
scalar MultiCell2.eNodeB2.nic.mac 	cqiDlMuMimo3:lteAvg 	1.8818181818182
attr source  cqiDlMuMimo3
attr title  "Average cqi MuMimo band 3, lteAvg"
attr unit  cqi
scalar MultiCell2.eNodeB2.nic.mac 	cqiDlMuMimo2:lteAvg 	12.922727272727
attr source  cqiDlMuMimo2
attr title  "Average cqi MuMimo band 2, lteAvg"
attr unit  cqi
scalar MultiCell2.eNodeB2.nic.mac 	cqiDlMuMimo2:lteAvg 	10.768181818182
attr source  cqiDlMuMimo2
attr title  "Average cqi MuMimo band 2, lteAvg"
attr unit  cqi
scalar MultiCell2.eNodeB2.nic.mac 	cqiDlMuMimo1:lteAvg 	11.904545454545
attr source  cqiDlMuMimo1
attr title  "Average cqi MuMimo band 1, lteAvg"
attr unit  cqi
scalar MultiCell2.eNodeB2.nic.mac 	cqiDlMuMimo1:lteAvg 	8.0204545454545
attr source  cqiDlMuMimo1
attr title  "Average cqi MuMimo band 1, lteAvg"
attr unit  cqi
scalar MultiCell2.eNodeB2.nic.mac 	cqiDlMuMimo0:lteAvg 	11.781818181818
attr source  cqiDlMuMimo0
attr title  "Average cqi MuMimo band 0, lteAvg"
attr unit  cqi
scalar MultiCell2.eNodeB2.nic.mac 	cqiDlMuMimo0:lteAvg 	8.1045454545455
attr source  cqiDlMuMimo0
attr title  "Average cqi MuMimo band 0, lteAvg"
attr unit  cqi
scalar MultiCell2.eNodeB2.nic.mac 	cqiDlTxDiv4:lteAvg 	14.231818181818
attr source  cqiDlTxDiv4
attr title  "Average cqi TxDiv band 4, lteAvg"
attr unit  cqi
scalar MultiCell2.eNodeB2.nic.mac 	cqiDlTxDiv4:lteAvg 	14.231818181818
attr source  cqiDlTxDiv4
attr title  "Average cqi TxDiv band 4, lteAvg"
attr unit  cqi
scalar MultiCell2.eNodeB2.nic.mac 	cqiDlTxDiv3:lteAvg 	14.231818181818
attr source  cqiDlTxDiv3
attr title  "Average cqi TxDiv band 3, lteAvg"
attr unit  cqi
scalar MultiCell2.eNodeB2.nic.mac 	cqiDlTxDiv3:lteAvg 	7.9840909090909
attr source  cqiDlTxDiv3
attr title  "Average cqi TxDiv band 3, lteAvg"
attr unit  cqi
scalar MultiCell2.eNodeB2.nic.mac 	cqiDlTxDiv2:lteAvg 	14.05
attr source  cqiDlTxDiv2
attr title  "Average cqi TxDiv band 2, lteAvg"
attr unit  cqi
scalar MultiCell2.eNodeB2.nic.mac 	cqiDlTxDiv2:lteAvg 	13.877272727273
attr source  cqiDlTxDiv2
attr title  "Average cqi TxDiv band 2, lteAvg"
attr unit  cqi
scalar MultiCell2.eNodeB2.nic.mac 	cqiDlTxDiv1:lteAvg 	13.818181818182
attr source  cqiDlTxDiv1
attr title  "Average cqi TxDiv band 1, lteAvg"
attr unit  cqi
scalar MultiCell2.eNodeB2.nic.mac 	cqiDlTxDiv1:lteAvg 	13.818181818182
attr source  cqiDlTxDiv1
attr title  "Average cqi TxDiv band 1, lteAvg"
attr unit  cqi
scalar MultiCell2.eNodeB2.nic.mac 	cqiDlTxDiv0:lteAvg 	13.522727272727
attr source  cqiDlTxDiv0
attr title  "Average cqi TxDiv band 0, lteAvg"
attr unit  cqi
scalar MultiCell2.eNodeB2.nic.mac 	cqiDlTxDiv0:lteAvg 	13.522727272727
attr source  cqiDlTxDiv0
attr title  "Average cqi TxDiv band 0, lteAvg"
attr unit  cqi
scalar MultiCell2.eNodeB2.nic.mac 	cqiDlSpmux4:lteAvg 	7.8409090909091
attr source  cqiDlSpmux4
attr title  "Average cqi Spmux band 4, lteAvg"
attr unit  cqi
scalar MultiCell2.eNodeB2.nic.mac 	cqiDlSpmux4:lteAvg 	8.075
attr source  cqiDlSpmux4
attr title  "Average cqi Spmux band 4, lteAvg"
attr unit  cqi
scalar MultiCell2.eNodeB2.nic.mac 	cqiDlSpmux3:lteAvg 	9.9840909090909
attr source  cqiDlSpmux3
attr title  "Average cqi Spmux band 3, lteAvg"
attr unit  cqi
scalar MultiCell2.eNodeB2.nic.mac 	cqiDlSpmux3:lteAvg 	2.4227272727273
attr source  cqiDlSpmux3
attr title  "Average cqi Spmux band 3, lteAvg"
attr unit  cqi
scalar MultiCell2.eNodeB2.nic.mac 	cqiDlSpmux2:lteAvg 	11.231818181818
attr source  cqiDlSpmux2
attr title  "Average cqi Spmux band 2, lteAvg"
attr unit  cqi
scalar MultiCell2.eNodeB2.nic.mac 	cqiDlSpmux2:lteAvg 	7.8954545454545
attr source  cqiDlSpmux2
attr title  "Average cqi Spmux band 2, lteAvg"
attr unit  cqi
scalar MultiCell2.eNodeB2.nic.mac 	cqiDlSpmux1:lteAvg 	9.4227272727273
attr source  cqiDlSpmux1
attr title  "Average cqi Spmux band 1, lteAvg"
attr unit  cqi
scalar MultiCell2.eNodeB2.nic.mac 	cqiDlSpmux1:lteAvg 	6.2863636363636
attr source  cqiDlSpmux1
attr title  "Average cqi Spmux band 1, lteAvg"
attr unit  cqi
scalar MultiCell2.eNodeB2.nic.mac 	cqiDlSpmux0:lteAvg 	9.8522727272727
attr source  cqiDlSpmux0
attr title  "Average cqi Spmux band 0, lteAvg"
attr unit  cqi
scalar MultiCell2.eNodeB2.nic.mac 	cqiDlSpmux0:lteAvg 	6.2522727272727
attr source  cqiDlSpmux0
attr title  "Average cqi Spmux band 0, lteAvg"
attr unit  cqi
scalar MultiCell2.eNodeB2.nic.mac 	cqiDlSiso4:lteAvg 	9.7204545454545
attr source  cqiDlSiso4
attr title  "Average cqi siso band 4, lteAvg"
attr unit  cqi
scalar MultiCell2.eNodeB2.nic.mac 	cqiDlSiso4:lteAvg 	10.668181818182
attr source  cqiDlSiso4
attr title  "Average cqi siso band 4, lteAvg"
attr unit  cqi
scalar MultiCell2.eNodeB2.nic.mac 	cqiDlSiso3:lteAvg 	12.35
attr source  cqiDlSiso3
attr title  "Average cqi siso band 3, lteAvg"
attr unit  cqi
scalar MultiCell2.eNodeB2.nic.mac 	cqiDlSiso3:lteAvg 	1.8818181818182
attr source  cqiDlSiso3
attr title  "Average cqi siso band 3, lteAvg"
attr unit  cqi
scalar MultiCell2.eNodeB2.nic.mac 	cqiDlSiso2:lteAvg 	12.922727272727
attr source  cqiDlSiso2
attr title  "Average cqi siso band 2, lteAvg"
attr unit  cqi
scalar MultiCell2.eNodeB2.nic.mac 	cqiDlSiso2:lteAvg 	10.768181818182
attr source  cqiDlSiso2
attr title  "Average cqi siso band 2, lteAvg"
attr unit  cqi
scalar MultiCell2.eNodeB2.nic.mac 	cqiDlSiso1:lteAvg 	11.904545454545
attr source  cqiDlSiso1
attr title  "Average cqi siso band 1, lteAvg"
attr unit  cqi
scalar MultiCell2.eNodeB2.nic.mac 	cqiDlSiso1:lteAvg 	8.0204545454545
attr source  cqiDlSiso1
attr title  "Average cqi siso band 1, lteAvg"
attr unit  cqi
scalar MultiCell2.eNodeB2.nic.mac 	cqiDlSiso0:lteAvg 	11.781818181818
attr source  cqiDlSiso0
attr title  "Average cqi siso band 0, lteAvg"
attr unit  cqi
scalar MultiCell2.eNodeB2.nic.mac 	cqiDlSiso0:lteAvg 	8.1045454545455
attr source  cqiDlSiso0
attr title  "Average cqi siso band 0, lteAvg"
attr unit  cqi
scalar MultiCell2.eNodeB2.nic.mac 	depletedPowerUl:lteAvg 	0
attr source  depletedPowerUl
attr title  "LTE ENodeB depleted power Ul, lteAvg"
attr unit  watts
scalar MultiCell2.eNodeB2.nic.mac 	depletedPowerDl:lteAvg 	261.65605462823
attr source  depletedPowerDl
attr title  "LTE ENodeB depleted power Dl, lteAvg"
attr unit  watts
scalar MultiCell2.eNodeB2.nic.mac 	avgServedBlocksUl:lteAvg 	0
attr source  avgServedBlocksUl
attr title  "LTE Avg Served Blocks Ul, lteAvg"
attr unit  blocks
scalar MultiCell2.eNodeB2.nic.mac 	avgServedBlocksDl:lteAvg 	0.44044006069803
attr source  avgServedBlocksDl
attr title  "LTE Avg Served Blocks Dl, lteAvg"
attr unit  blocks
scalar MultiCell2.eNodeB2.nic.mac 	cellBlocksUtilizationUl:lteAvg 	0
attr source  cellBlocksUtilizationUl
attr title  "LTE Cell Blocks Utilization Ul, lteAvg"
attr unit  blocks
scalar MultiCell2.eNodeB2.nic.mac 	cellBlocksUtilizationDl:lteAvg 	0.073406676783004
attr source  cellBlocksUtilizationDl
attr title  "LTE Cell Blocks Utilization Dl, lteAvg"
attr unit  blocks
scalar MultiCell2.eNodeB2.nic.mac 	measuredItbs:mean 	14.718934911243
attr source  measuredItbs
attr title  "TBS index, mean"
attr unit  ""
scalar MultiCell2.eNodeB2.nic.mac 	harqErrorRate_4th_D2D:mean 	-nan
attr source  harqErrorRate_4th_D2D
attr title  "Harq Error Rate D2D, mean"
attr unit  ""
scalar MultiCell2.eNodeB2.nic.mac 	harqErrorRate_4th_Dl:mean 	-nan
attr source  harqErrorRate_4th_Dl
attr title  "Harq Error Rate Dl, mean"
attr unit  ""
scalar MultiCell2.eNodeB2.nic.mac 	harqErrorRate_4th_Ul:mean 	-nan
attr source  harqErrorRate_4th_Ul
attr title  "Harq Error Rate Ul, mean"
attr unit  ""
scalar MultiCell2.eNodeB2.nic.mac 	harqErrorRate_3rd_D2D:mean 	-nan
attr source  harqErrorRate_3rd_D2D
attr title  "Harq Error Rate D2D, mean"
attr unit  ""
scalar MultiCell2.eNodeB2.nic.mac 	harqErrorRate_3rd_Dl:mean 	-nan
attr source  harqErrorRate_3rd_Dl
attr title  "Harq Error Rate Dl, mean"
attr unit  ""
scalar MultiCell2.eNodeB2.nic.mac 	harqErrorRate_3rd_Ul:mean 	-nan
attr source  harqErrorRate_3rd_Ul
attr title  "Harq Error Rate Ul, mean"
attr unit  ""
scalar MultiCell2.eNodeB2.nic.mac 	harqErrorRate_2nd_D2D:mean 	-nan
attr source  harqErrorRate_2nd_D2D
attr title  "Harq Error Rate D2D, mean"
attr unit  ""
scalar MultiCell2.eNodeB2.nic.mac 	harqErrorRate_2nd_Dl:mean 	-nan
attr source  harqErrorRate_2nd_Dl
attr title  "Harq Error Rate Dl, mean"
attr unit  ""
scalar MultiCell2.eNodeB2.nic.mac 	harqErrorRate_2nd_Ul:mean 	-nan
attr source  harqErrorRate_2nd_Ul
attr title  "Harq Error Rate Ul, mean"
attr unit  ""
scalar MultiCell2.eNodeB2.nic.mac 	harqErrorRate_1st_D2D:mean 	-nan
attr source  harqErrorRate_1st_D2D
attr title  "Harq Error Rate D2D, mean"
attr unit  ""
scalar MultiCell2.eNodeB2.nic.mac 	harqErrorRate_1st_Dl:mean 	-nan
attr source  harqErrorRate_1st_Dl
attr title  "Harq Error Rate Dl, mean"
attr unit  ""
scalar MultiCell2.eNodeB2.nic.mac 	harqErrorRate_1st_Ul:mean 	-nan
attr source  harqErrorRate_1st_Ul
attr title  "Harq Error Rate Ul, mean"
attr unit  ""
scalar MultiCell2.eNodeB2.nic.mac 	harqErrorRateD2D:mean 	-nan
attr source  harqErrorRateD2D
attr title  "Harq Error Rate D2D, mean"
attr unit  ""
scalar MultiCell2.eNodeB2.nic.mac 	harqErrorRateDl:mean 	-nan
attr source  harqErrorRateDl
attr title  "Harq Error Rate Dl, mean"
attr unit  ""
scalar MultiCell2.eNodeB2.nic.mac 	harqErrorRateUl:mean 	-nan
attr source  harqErrorRateUl
attr title  "Harq Error Rate Ul, mean"
attr unit  ""
scalar MultiCell2.eNodeB2.nic.mac 	macPacketLossD2D:mean 	-nan
attr source  macPacketLossD2D
attr title  "Mac Packet Loss D2D, mean"
attr unit  ""
scalar MultiCell2.eNodeB2.nic.mac 	macPacketLossDl:mean 	-nan
attr source  macPacketLossDl
attr title  "Mac Packet Loss Dl, mean"
attr unit  ""
scalar MultiCell2.eNodeB2.nic.mac 	macPacketLossUl:mean 	-nan
attr source  macPacketLossUl
attr title  "Mac Packet Loss Ul, mean"
attr unit  ""
scalar MultiCell2.eNodeB2.nic.mac 	macCellPacketLossD2D:mean 	-nan
attr source  macCellPacketLossD2D
attr title  "Mac Cell Packet Loss D2D, mean"
attr unit  ""
scalar MultiCell2.eNodeB2.nic.mac 	macCellPacketLossUl:mean 	-nan
attr source  macCellPacketLossUl
attr title  "Mac Cell Packet Loss Ul, mean"
attr unit  ""
scalar MultiCell2.eNodeB2.nic.mac 	macCellPacketLossDl:mean 	0
attr source  macCellPacketLossDl
attr title  "Mac Cell Packet Loss Dl, mean"
attr unit  ""
scalar MultiCell2.eNodeB2.nic.mac 	macCellThroughputDl:lteRate 	7045.0038138825
attr source  macCellThroughputDl
attr title  "Cell Throughput at the MAC layer DL, lteRate"
attr unit  Bps
scalar MultiCell2.eNodeB2.nic.mac 	sentPacketToLowerLayer:count 	361
attr interpolationmode  none
attr source  sentPacketToLowerLayer
scalar MultiCell2.eNodeB2.nic.mac 	sentPacketToLowerLayer:sum(packetBytes) 	0
attr interpolationmode  none
attr source  sentPacketToLowerLayer
scalar MultiCell2.eNodeB2.nic.mac 	sentPacketToUpperLayer:count 	340
attr interpolationmode  none
attr source  sentPacketToUpperLayer
scalar MultiCell2.eNodeB2.nic.mac 	sentPacketToUpperLayer:sum(packetBytes) 	0
attr interpolationmode  none
attr source  sentPacketToUpperLayer
scalar MultiCell2.eNodeB2.nic.mac 	receivedPacketFromLowerLayer:count 	1241
attr interpolationmode  none
attr source  receivedPacketFromLowerLayer
scalar MultiCell2.eNodeB2.nic.mac 	receivedPacketFromLowerLayer:sum(packetBytes) 	0
attr interpolationmode  none
attr source  receivedPacketFromLowerLayer
scalar MultiCell2.eNodeB2.nic.mac 	receivedPacketFromUpperLayer:count 	588
attr interpolationmode  none
attr source  receivedPacketFromUpperLayer
scalar MultiCell2.eNodeB2.nic.mac 	receivedPacketFromUpperLayer:sum(packetBytes) 	34904
attr interpolationmode  none
attr source  receivedPacketFromUpperLayer
scalar MultiCell2.eNodeB2.ppp.queue 	queueLength:max 	0
attr interpolationmode  sample-hold
attr title  "queue length, max"
scalar MultiCell2.eNodeB2.ppp.queue 	queueLength:timeavg 	0
attr interpolationmode  sample-hold
attr title  "queue length, timeavg"
statistic MultiCell2.eNodeB2.ppp.queue 	queueingTime:histogram
field count 0
field mean -nan
field stddev -nan
field sum 0
field sqrsum 0
field min -nan
field max -nan
attr interpolationmode  none
attr title  "queueing time, histogram"
bin	-INF	0
bin	-0.5	0
bin	-0.46666666666667	0
bin	-0.43333333333333	0
bin	-0.4	0
bin	-0.36666666666667	0
bin	-0.33333333333333	0
bin	-0.3	0
bin	-0.26666666666667	0
bin	-0.23333333333333	0
bin	-0.2	0
bin	-0.16666666666667	0
bin	-0.13333333333333	0
bin	-0.1	0
bin	-0.066666666666667	0
bin	-0.033333333333333	0
bin	0	0
bin	0.033333333333333	0
bin	0.066666666666667	0
bin	0.1	0
bin	0.13333333333333	0
bin	0.16666666666667	0
bin	0.2	0
bin	0.23333333333333	0
bin	0.26666666666667	0
bin	0.3	0
bin	0.33333333333333	0
bin	0.36666666666667	0
bin	0.4	0
bin	0.43333333333333	0
bin	0.46666666666667	0
bin	0.5	0
scalar MultiCell2.eNodeB2.ppp.queue 	dropPk:count 	0
attr interpolationmode  none
attr source  dropPkByQueue
attr title  "dropped packets, count"
scalar MultiCell2.eNodeB2.ppp.queue 	dropPk:sum(packetBytes) 	0
attr interpolationmode  none
attr source  dropPkByQueue
attr title  "dropped packets, sum(packetBytes)"
scalar MultiCell2.eNodeB2.ppp.queue 	rcvdPk:count 	0
attr interpolationmode  none
attr title  "received packets, count"
scalar MultiCell2.eNodeB2.ppp.queue 	rcvdPk:sum(packetBytes) 	0
attr interpolationmode  none
attr title  "received packets, sum(packetBytes)"
scalar MultiCell2.eNodeB2.ppp.ppp 	txState:timeavg 	0
attr interpolationmode  sample-hold
attr title  "tx state, timeavg"
scalar MultiCell2.eNodeB2.ppp.ppp 	droppedPkIfaceDown:count 	0
attr interpolationmode  none
attr source  dropPkIfaceDown
attr title  "packets dropped/interface down, count"
scalar MultiCell2.eNodeB2.ppp.ppp 	droppedPkIfaceDown:sum(packetBytes) 	0
attr interpolationmode  none
attr source  dropPkIfaceDown
attr title  "packets dropped/interface down, sum(packetBytes)"
scalar MultiCell2.eNodeB2.ppp.ppp 	droppedPkBitError:count 	0
attr interpolationmode  none
attr source  dropPkBitError
attr title  "packets dropped/bit error, count"
scalar MultiCell2.eNodeB2.ppp.ppp 	droppedPkBitError:sum(packetBytes) 	0
attr interpolationmode  none
attr source  dropPkBitError
attr title  "packets dropped/bit error, sum(packetBytes)"
scalar MultiCell2.eNodeB2.ppp.ppp 	rxPkOk:count 	248
attr interpolationmode  none
attr source  rxPkOk
attr title  "packets received OK, count"
scalar MultiCell2.eNodeB2.ppp.ppp 	rxPkOk:sum(packetBytes) 	25544
attr interpolationmode  none
attr source  rxPkOk
attr title  "packets received OK, sum(packetBytes)"
scalar MultiCell2.eNodeB2.ppp.ppp 	rcvdPkFromHL:count 	0
attr interpolationmode  none
attr source  packetReceivedFromUpper
attr title  "packets received from higher layer, count"
scalar MultiCell2.eNodeB2.ppp.ppp 	rcvdPkFromHL:sum(packetBytes) 	0
attr interpolationmode  none
attr source  packetReceivedFromUpper
attr title  "packets received from higher layer, sum(packetBytes)"
scalar MultiCell2.eNodeB2.ppp.ppp 	passedUpPk:count 	248
attr interpolationmode  none
attr source  packetSentToUpper
attr title  "packets passed to higher layer, count"
scalar MultiCell2.eNodeB2.ppp.ppp 	passedUpPk:sum(packetBytes) 	23808
attr interpolationmode  none
attr source  packetSentToUpper
attr title  "packets passed to higher layer, sum(packetBytes)"
scalar MultiCell2.eNodeB2.ppp.ppp 	txPk:count 	0
attr interpolationmode  none
attr source  packetSentToLower
attr title  "packets transmitted, count"
scalar MultiCell2.eNodeB2.ppp.ppp 	txPk:sum(packetBytes) 	0
attr interpolationmode  none
attr source  packetSentToLower
attr title  "packets transmitted, sum(packetBytes)"
scalar MultiCell2.eNodeB2.x2ppp[0].queue 	queueLength:max 	0
attr interpolationmode  sample-hold
attr title  "queue length, max"
scalar MultiCell2.eNodeB2.x2ppp[0].queue 	queueLength:timeavg 	0
attr interpolationmode  sample-hold
attr title  "queue length, timeavg"
statistic MultiCell2.eNodeB2.x2ppp[0].queue 	queueingTime:histogram
field count 0
field mean -nan
field stddev -nan
field sum 0
field sqrsum 0
field min -nan
field max -nan
attr interpolationmode  none
attr title  "queueing time, histogram"
bin	-INF	0
bin	-0.5	0
bin	-0.46666666666667	0
bin	-0.43333333333333	0
bin	-0.4	0
bin	-0.36666666666667	0
bin	-0.33333333333333	0
bin	-0.3	0
bin	-0.26666666666667	0
bin	-0.23333333333333	0
bin	-0.2	0
bin	-0.16666666666667	0
bin	-0.13333333333333	0
bin	-0.1	0
bin	-0.066666666666667	0
bin	-0.033333333333333	0
bin	0	0
bin	0.033333333333333	0
bin	0.066666666666667	0
bin	0.1	0
bin	0.13333333333333	0
bin	0.16666666666667	0
bin	0.2	0
bin	0.23333333333333	0
bin	0.26666666666667	0
bin	0.3	0
bin	0.33333333333333	0
bin	0.36666666666667	0
bin	0.4	0
bin	0.43333333333333	0
bin	0.46666666666667	0
bin	0.5	0
scalar MultiCell2.eNodeB2.x2ppp[0].queue 	dropPk:count 	0
attr interpolationmode  none
attr source  dropPkByQueue
attr title  "dropped packets, count"
scalar MultiCell2.eNodeB2.x2ppp[0].queue 	dropPk:sum(packetBytes) 	0
attr interpolationmode  none
attr source  dropPkByQueue
attr title  "dropped packets, sum(packetBytes)"
scalar MultiCell2.eNodeB2.x2ppp[0].queue 	rcvdPk:count 	0
attr interpolationmode  none
attr title  "received packets, count"
scalar MultiCell2.eNodeB2.x2ppp[0].queue 	rcvdPk:sum(packetBytes) 	0
attr interpolationmode  none
attr title  "received packets, sum(packetBytes)"
scalar MultiCell2.eNodeB2.x2ppp[0].ppp 	txState:timeavg 	0
attr interpolationmode  sample-hold
attr title  "tx state, timeavg"
scalar MultiCell2.eNodeB2.x2ppp[0].ppp 	droppedPkIfaceDown:count 	0
attr interpolationmode  none
attr source  dropPkIfaceDown
attr title  "packets dropped/interface down, count"
scalar MultiCell2.eNodeB2.x2ppp[0].ppp 	droppedPkIfaceDown:sum(packetBytes) 	0
attr interpolationmode  none
attr source  dropPkIfaceDown
attr title  "packets dropped/interface down, sum(packetBytes)"
scalar MultiCell2.eNodeB2.x2ppp[0].ppp 	droppedPkBitError:count 	0
attr interpolationmode  none
attr source  dropPkBitError
attr title  "packets dropped/bit error, count"
scalar MultiCell2.eNodeB2.x2ppp[0].ppp 	droppedPkBitError:sum(packetBytes) 	0
attr interpolationmode  none
attr source  dropPkBitError
attr title  "packets dropped/bit error, sum(packetBytes)"
scalar MultiCell2.eNodeB2.x2ppp[0].ppp 	rxPkOk:count 	0
attr interpolationmode  none
attr source  rxPkOk
attr title  "packets received OK, count"
scalar MultiCell2.eNodeB2.x2ppp[0].ppp 	rxPkOk:sum(packetBytes) 	0
attr interpolationmode  none
attr source  rxPkOk
attr title  "packets received OK, sum(packetBytes)"
scalar MultiCell2.eNodeB2.x2ppp[0].ppp 	rcvdPkFromHL:count 	0
attr interpolationmode  none
attr source  packetReceivedFromUpper
attr title  "packets received from higher layer, count"
scalar MultiCell2.eNodeB2.x2ppp[0].ppp 	rcvdPkFromHL:sum(packetBytes) 	0
attr interpolationmode  none
attr source  packetReceivedFromUpper
attr title  "packets received from higher layer, sum(packetBytes)"
scalar MultiCell2.eNodeB2.x2ppp[0].ppp 	passedUpPk:count 	0
attr interpolationmode  none
attr source  packetSentToUpper
attr title  "packets passed to higher layer, count"
scalar MultiCell2.eNodeB2.x2ppp[0].ppp 	passedUpPk:sum(packetBytes) 	0
attr interpolationmode  none
attr source  packetSentToUpper
attr title  "packets passed to higher layer, sum(packetBytes)"
scalar MultiCell2.eNodeB2.x2ppp[0].ppp 	txPk:count 	0
attr interpolationmode  none
attr source  packetSentToLower
attr title  "packets transmitted, count"
scalar MultiCell2.eNodeB2.x2ppp[0].ppp 	txPk:sum(packetBytes) 	0
attr interpolationmode  none
attr source  packetSentToLower
attr title  "packets transmitted, sum(packetBytes)"
scalar MultiCell2.eNodeB2.networkLayer.arp 	failedARPResolution:count 	0
attr title  "ARP failed resolutions, count"
scalar MultiCell2.eNodeB2.networkLayer.arp 	completedARPResolution:count 	0
attr title  "ARP completed resolutions, count"
scalar MultiCell2.eNodeB2.networkLayer.arp 	initiatedARPResolution:count 	0
attr title  "ARP initiated resolutions, count"
scalar MultiCell2.eNodeB2.networkLayer.arp 	sentReply:count 	0
attr title  "ARP replies sent, count"
scalar MultiCell2.eNodeB2.networkLayer.arp 	sentReq:count 	0
attr title  "ARP request sent, count"
scalar MultiCell2.eNodeB2.udp 	droppedPkBadChecksum:count 	0
attr interpolationmode  none
attr title  "packets dropped (checksum error), count"
scalar MultiCell2.eNodeB2.udp 	droppedPkWrongPort:count 	0
attr interpolationmode  none
attr title  "packets dropped (wrong port), count"
scalar MultiCell2.eNodeB2.udp 	passedUpPk:count 	248
attr interpolationmode  none
attr title  "packets passed up, count"
scalar MultiCell2.eNodeB2.udp 	rcvdPk:count 	248
attr interpolationmode  none
attr source  rcvdPk
attr title  "packets received, count"
scalar MultiCell2.eNodeB2.udp 	rcvdPk:sum(packetBytes) 	18848
attr interpolationmode  none
attr source  rcvdPk
attr title  "packets received, sum(packetBytes)"
scalar MultiCell2.eNodeB2.udp 	sentPk:count 	0
attr interpolationmode  none
attr source  sentPk
attr title  "packets sent, count"
scalar MultiCell2.eNodeB2.udp 	sentPk:sum(packetBytes) 	0
attr interpolationmode  none
attr source  sentPk
attr title  "packets sent, sum(packetBytes)"
[...]
attr unit  Bps
scalar MultiCell2.ue2.udpApp[0] 	voipReceivedThroughtput_lte:lteRate 	2016.8067226891
attr source  voipReceivedThroughtput_lte
attr title  "Throughput received at the application level, lteRate"
attr unit  Bps
scalar MultiCell2.ue2.udpApp[0] 	voIPTaildropLoss:mean 	0
attr source  voIPTaildropLoss
attr title  "VoIP Tail Drop Loss, mean"
attr unit  ratio
scalar MultiCell2.ue2.udpApp[0] 	voIPMos:mean 	4.409285824
attr source  voIPMos
attr title  "VoIP Mos Signal, mean"
attr unit  MOS
scalar MultiCell2.ue2.udpApp[0] 	voIPJitter:mean 	-nan
attr source  voIPJitter
attr title  "VoIP Playout Loss, mean"
attr unit  s
scalar MultiCell2.ue2.udpApp[0] 	voIPPlayoutLoss:mean 	0
attr source  voIPPlayoutLoss
attr title  "VoIP Playout Loss, mean"
attr unit  ratio
scalar MultiCell2.ue2.udpApp[0] 	voIPPlayoutDelay:mean 	0
attr source  voIPPlayoutDelay
attr title  "VoIP Playout Delay, mean"
attr unit  s
scalar MultiCell2.ue2.udpApp[0] 	voIPFrameDelay:mean 	0.0056969696969697
attr source  voIPFrameDelay
attr title  "VoIP Frame Delay, mean"
attr unit  s
scalar MultiCell2.ue2.udpApp[0] 	voIPFrameLoss:mean 	0
attr source  voIPFrameLoss
attr title  "VoIP Frame Loss, mean"
attr unit  ratio
scalar MultiCell2.ue2.udp 	droppedPkBadChecksum:count 	0
attr interpolationmode  none
attr title  "packets dropped (checksum error), count"
scalar MultiCell2.ue2.udp 	droppedPkWrongPort:count 	0
attr interpolationmode  none
attr title  "packets dropped (wrong port), count"
scalar MultiCell2.ue2.udp 	passedUpPk:count 	132
attr interpolationmode  none
attr title  "packets passed up, count"
scalar MultiCell2.ue2.udp 	rcvdPk:count 	132
attr interpolationmode  none
attr source  rcvdPk
attr title  "packets received, count"
scalar MultiCell2.ue2.udp 	rcvdPk:sum(packetBytes) 	6336
attr interpolationmode  none
attr source  rcvdPk
attr title  "packets received, sum(packetBytes)"
scalar MultiCell2.ue2.udp 	sentPk:count 	0
attr interpolationmode  none
attr source  sentPk
attr title  "packets sent, count"
scalar MultiCell2.ue2.udp 	sentPk:sum(packetBytes) 	0
attr interpolationmode  none
attr source  sentPk
attr title  "packets sent, sum(packetBytes)"
scalar MultiCell2.ue2.nic.pdcpRrc 	sentPacketToLowerLayer:count 	0
attr interpolationmode  none
attr source  sentPacketToLowerLayer
scalar MultiCell2.ue2.nic.pdcpRrc 	sentPacketToLowerLayer:sum(packetBytes) 	0
attr interpolationmode  none
attr source  sentPacketToLowerLayer
scalar MultiCell2.ue2.nic.pdcpRrc 	sentPacketToUpperLayer:count 	132
attr interpolationmode  none
attr source  sentPacketToUpperLayer
scalar MultiCell2.ue2.nic.pdcpRrc 	sentPacketToUpperLayer:sum(packetBytes) 	8976
attr interpolationmode  none
attr source  sentPacketToUpperLayer
scalar MultiCell2.ue2.nic.pdcpRrc 	receivedPacketFromLowerLayer:count 	132
attr interpolationmode  none
attr source  receivedPacketFromLowerLayer
scalar MultiCell2.ue2.nic.pdcpRrc 	receivedPacketFromLowerLayer:sum(packetBytes) 	9108
attr interpolationmode  none
attr source  receivedPacketFromLowerLayer
scalar MultiCell2.ue2.nic.pdcpRrc 	receivedPacketFromUpperLayer:count 	0
attr interpolationmode  none
attr source  receivedPacketFromUpperLayer
scalar MultiCell2.ue2.nic.pdcpRrc 	receivedPacketFromUpperLayer:sum(packetBytes) 	0
attr interpolationmode  none
attr source  receivedPacketFromUpperLayer
scalar MultiCell2.ue2.nic.rlc.um 	rlcPduPacketLossDl:lteAvg 	0
attr source  rlcPduPacketLossDl
attr title  "rlc Packet Loss, lteAvg"
attr unit  ""
scalar MultiCell2.ue2.nic.rlc.um 	rlcPacketLossDl:lteAvg 	0
attr source  rlcPacketLossDl
attr title  "rlc Packet Loss, lteAvg"
attr unit  ""
scalar MultiCell2.ue2.nic.rlc.um 	rlcPduThroughputDl:lteRate 	3644.5461479786
attr source  rlcPduThroughputDl
attr title  "Throughput at the rlc layer DL, lteRate"
attr unit  Bps
scalar MultiCell2.ue2.nic.rlc.um 	rlcPduDelayDl:lteAvg 	0.004
attr source  rlcPduDelayDl
attr title  "Delay at the rlc layer UL, lteAvg"
attr unit  s
scalar MultiCell2.ue2.nic.rlc.um 	rlcThroughputDl:lteRate 	3478.9915966387
attr source  rlcThroughputDl
attr title  "Throughput at the rlc layer DL, lteRate"
attr unit  Bps
scalar MultiCell2.ue2.nic.rlc.um 	rlcDelayDl:lteAvg 	0.0056947956969697
attr source  rlcDelayDl
attr title  "Delay at the rlc layer UL, lteAvg"
attr unit  s
scalar MultiCell2.ue2.nic.mac 	measuredItbs:mean 	-nan
attr source  measuredItbs
attr title  "TBS index, mean"
attr unit  ""
scalar MultiCell2.ue2.nic.mac 	harqErrorRate_4th_D2D:mean 	-nan
attr source  harqErrorRate_4th_D2D
attr title  "Harq Error Rate D2D, mean"
attr unit  ""
scalar MultiCell2.ue2.nic.mac 	harqErrorRate_4th_Dl:mean 	-nan
attr source  harqErrorRate_4th_Dl
attr title  "Harq Error Rate Dl, mean"
attr unit  ""
scalar MultiCell2.ue2.nic.mac 	harqErrorRate_4th_Ul:mean 	-nan
attr source  harqErrorRate_4th_Ul
attr title  "Harq Error Rate Ul, mean"
attr unit  ""
scalar MultiCell2.ue2.nic.mac 	harqErrorRate_3rd_D2D:mean 	-nan
attr source  harqErrorRate_3rd_D2D
attr title  "Harq Error Rate D2D, mean"
attr unit  ""
scalar MultiCell2.ue2.nic.mac 	harqErrorRate_3rd_Dl:mean 	-nan
attr source  harqErrorRate_3rd_Dl
attr title  "Harq Error Rate Dl, mean"
attr unit  ""
scalar MultiCell2.ue2.nic.mac 	harqErrorRate_3rd_Ul:mean 	-nan
attr source  harqErrorRate_3rd_Ul
attr title  "Harq Error Rate Ul, mean"
attr unit  ""
scalar MultiCell2.ue2.nic.mac 	harqErrorRate_2nd_D2D:mean 	-nan
attr source  harqErrorRate_2nd_D2D
attr title  "Harq Error Rate D2D, mean"
attr unit  ""
scalar MultiCell2.ue2.nic.mac 	harqErrorRate_2nd_Dl:mean 	-nan
attr source  harqErrorRate_2nd_Dl
attr title  "Harq Error Rate Dl, mean"
attr unit  ""
scalar MultiCell2.ue2.nic.mac 	harqErrorRate_2nd_Ul:mean 	-nan
attr source  harqErrorRate_2nd_Ul
attr title  "Harq Error Rate Ul, mean"
attr unit  ""
scalar MultiCell2.ue2.nic.mac 	harqErrorRate_1st_D2D:mean 	-nan
attr source  harqErrorRate_1st_D2D
attr title  "Harq Error Rate D2D, mean"
attr unit  ""
scalar MultiCell2.ue2.nic.mac 	harqErrorRate_1st_Dl:mean 	0
attr source  harqErrorRate_1st_Dl
attr title  "Harq Error Rate Dl, mean"
attr unit  ""
scalar MultiCell2.ue2.nic.mac 	harqErrorRate_1st_Ul:mean 	-nan
attr source  harqErrorRate_1st_Ul
attr title  "Harq Error Rate Ul, mean"
attr unit  ""
scalar MultiCell2.ue2.nic.mac 	harqErrorRateD2D:mean 	-nan
attr source  harqErrorRateD2D
attr title  "Harq Error Rate D2D, mean"
attr unit  ""
scalar MultiCell2.ue2.nic.mac 	harqErrorRateDl:mean 	0
attr source  harqErrorRateDl
attr title  "Harq Error Rate Dl, mean"
attr unit  ""
scalar MultiCell2.ue2.nic.mac 	harqErrorRateUl:mean 	-nan
attr source  harqErrorRateUl
attr title  "Harq Error Rate Ul, mean"
attr unit  ""
scalar MultiCell2.ue2.nic.mac 	macPacketLossD2D:mean 	-nan
attr source  macPacketLossD2D
attr title  "Mac Packet Loss D2D, mean"
attr unit  ""
scalar MultiCell2.ue2.nic.mac 	macPacketLossDl:mean 	0
attr source  macPacketLossDl
attr title  "Mac Packet Loss Dl, mean"
attr unit  ""
scalar MultiCell2.ue2.nic.mac 	macPacketLossUl:mean 	-nan
attr source  macPacketLossUl
attr title  "Mac Packet Loss Ul, mean"
attr unit  ""
scalar MultiCell2.ue2.nic.mac 	macCellPacketLossD2D:mean 	-nan
attr source  macCellPacketLossD2D
attr title  "Mac Cell Packet Loss D2D, mean"
attr unit  ""
scalar MultiCell2.ue2.nic.mac 	macCellPacketLossUl:mean 	-nan
attr source  macCellPacketLossUl
attr title  "Mac Cell Packet Loss Ul, mean"
attr unit  ""
scalar MultiCell2.ue2.nic.mac 	macCellPacketLossDl:mean 	-nan
attr source  macCellPacketLossDl
attr title  "Mac Cell Packet Loss Dl, mean"
attr unit  ""
scalar MultiCell2.ue2.nic.mac 	macThroughputDl:lteRate 	3815.408085431
attr source  macThroughputDl
attr title  "Throughput at the MAC layer DL, lteRate"
attr unit  Bps
scalar MultiCell2.ue2.nic.mac 	macDelayDl:lteAvg 	0.004
attr source  macDelayDl
attr title  "Delay at the MAC layer UL, lteAvg"
attr unit  s
scalar MultiCell2.ue2.nic.mac 	sentPacketToLowerLayer:count 	224
attr interpolationmode  none
attr source  sentPacketToLowerLayer
scalar MultiCell2.ue2.nic.mac 	sentPacketToLowerLayer:sum(packetBytes) 	0
attr interpolationmode  none
attr source  sentPacketToLowerLayer
scalar MultiCell2.ue2.nic.mac 	sentPacketToUpperLayer:count 	224
attr interpolationmode  none
attr source  sentPacketToUpperLayer
scalar MultiCell2.ue2.nic.mac 	sentPacketToUpperLayer:sum(packetBytes) 	9556
attr interpolationmode  none
attr source  sentPacketToUpperLayer
scalar MultiCell2.ue2.nic.mac 	receivedPacketFromLowerLayer:count 	224
attr interpolationmode  none
attr source  receivedPacketFromLowerLayer
scalar MultiCell2.ue2.nic.mac 	receivedPacketFromLowerLayer:sum(packetBytes) 	0
attr interpolationmode  none
attr source  receivedPacketFromLowerLayer
scalar MultiCell2.ue2.nic.mac 	receivedPacketFromUpperLayer:count 	0
attr interpolationmode  none
attr source  receivedPacketFromUpperLayer
scalar MultiCell2.ue2.nic.mac 	receivedPacketFromUpperLayer:sum(packetBytes) 	0
attr interpolationmode  none
attr source  receivedPacketFromUpperLayer
scalar MultiCell2.ue2.nic.mac 	averageCqiDl:lteAvg 	9.6607142857143
attr source  averageCqiDl
attr title  "Average Cqi reported in DL, lteAvg"
attr unit  cqi
scalar MultiCell2.ue2.networkLayer.arp 	failedARPResolution:count 	0
attr title  "ARP failed resolutions, count"
scalar MultiCell2.ue2.networkLayer.arp 	completedARPResolution:count 	0
attr title  "ARP completed resolutions, count"
scalar MultiCell2.ue2.networkLayer.arp 	initiatedARPResolution:count 	0
attr title  "ARP initiated resolutions, count"
scalar MultiCell2.ue2.networkLayer.arp 	sentReply:count 	0
attr title  "ARP replies sent, count"
scalar MultiCell2.ue2.networkLayer.arp 	sentReq:count 	0
attr title  "ARP request sent, count"
scalar MultiCell2.ue22.udpApp[0] 	voipReceivedThroughtput:timeavg 	40
attr source  voipReceivedThroughtput
attr title  "Throughput received at the application level, timeavg"
attr unit  Bps
scalar MultiCell2.ue22.udpApp[0] 	voipReceivedThroughtput:mean 	40
attr source  voipReceivedThroughtput
attr title  "Throughput received at the application level, mean"
attr unit  Bps
scalar MultiCell2.ue22.udpApp[0] 	voipReceivedThroughtput:sum 	4640
attr source  voipReceivedThroughtput
attr title  "Throughput received at the application level, sum"
attr unit  Bps
scalar MultiCell2.ue22.udpApp[0] 	voipReceivedThroughtput_lte:lteRate 	1780.5065234075
attr source  voipReceivedThroughtput_lte
attr title  "Throughput received at the application level, lteRate"
attr unit  Bps
scalar MultiCell2.ue22.udpApp[0] 	voIPTaildropLoss:mean 	0
attr source  voIPTaildropLoss
attr title  "VoIP Tail Drop Loss, mean"
attr unit  ratio
scalar MultiCell2.ue22.udpApp[0] 	voIPMos:mean 	4.1943949634454
attr source  voIPMos
attr title  "VoIP Mos Signal, mean"
attr unit  MOS
scalar MultiCell2.ue22.udpApp[0] 	voIPJitter:mean 	0.006
attr source  voIPJitter
attr title  "VoIP Playout Loss, mean"
attr unit  s
scalar MultiCell2.ue22.udpApp[0] 	voIPPlayoutLoss:mean 	0.0094339622641509
attr source  voIPPlayoutLoss
attr title  "VoIP Playout Loss, mean"
attr unit  ratio
scalar MultiCell2.ue22.udpApp[0] 	voIPPlayoutDelay:mean 	0.003
attr source  voIPPlayoutDelay
attr title  "VoIP Playout Delay, mean"
attr unit  s
scalar MultiCell2.ue22.udpApp[0] 	voIPFrameDelay:mean 	0.0064498980406897
attr source  voIPFrameDelay
attr title  "VoIP Frame Delay, mean"
attr unit  s
scalar MultiCell2.ue22.udpApp[0] 	voIPFrameLoss:mean 	0
attr source  voIPFrameLoss
attr title  "VoIP Frame Loss, mean"
attr unit  ratio
scalar MultiCell2.ue22.udp 	droppedPkBadChecksum:count 	0
attr interpolationmode  none
attr title  "packets dropped (checksum error), count"
scalar MultiCell2.ue22.udp 	droppedPkWrongPort:count 	0
attr interpolationmode  none
attr title  "packets dropped (wrong port), count"
scalar MultiCell2.ue22.udp 	passedUpPk:count 	116
attr interpolationmode  none
attr title  "packets passed up, count"
scalar MultiCell2.ue22.udp 	rcvdPk:count 	116
attr interpolationmode  none
attr source  rcvdPk
attr title  "packets received, count"
scalar MultiCell2.ue22.udp 	rcvdPk:sum(packetBytes) 	5568
attr interpolationmode  none
attr source  rcvdPk
attr title  "packets received, sum(packetBytes)"
scalar MultiCell2.ue22.udp 	sentPk:count 	0
attr interpolationmode  none
attr source  sentPk
attr title  "packets sent, count"
scalar MultiCell2.ue22.udp 	sentPk:sum(packetBytes) 	0
attr interpolationmode  none
attr source  sentPk
attr title  "packets sent, sum(packetBytes)"
scalar MultiCell2.ue22.nic.pdcpRrc 	sentPacketToLowerLayer:count 	0
attr interpolationmode  none
attr source  sentPacketToLowerLayer
scalar MultiCell2.ue22.nic.pdcpRrc 	sentPacketToLowerLayer:sum(packetBytes) 	0
attr interpolationmode  none
attr source  sentPacketToLowerLayer
scalar MultiCell2.ue22.nic.pdcpRrc 	sentPacketToUpperLayer:count 	116
attr interpolationmode  none
attr source  sentPacketToUpperLayer
scalar MultiCell2.ue22.nic.pdcpRrc 	sentPacketToUpperLayer:sum(packetBytes) 	7888
attr interpolationmode  none
attr source  sentPacketToUpperLayer
scalar MultiCell2.ue22.nic.pdcpRrc 	receivedPacketFromLowerLayer:count 	116
attr interpolationmode  none
attr source  receivedPacketFromLowerLayer
scalar MultiCell2.ue22.nic.pdcpRrc 	receivedPacketFromLowerLayer:sum(packetBytes) 	8004
attr interpolationmode  none
attr source  receivedPacketFromLowerLayer
scalar MultiCell2.ue22.nic.pdcpRrc 	receivedPacketFromUpperLayer:count 	0
attr interpolationmode  none
attr source  receivedPacketFromUpperLayer
scalar MultiCell2.ue22.nic.pdcpRrc 	receivedPacketFromUpperLayer:sum(packetBytes) 	0
attr interpolationmode  none
attr source  receivedPacketFromUpperLayer
scalar MultiCell2.ue22.nic.rlc.um 	rlcPduPacketLossDl:lteAvg 	0
attr source  rlcPduPacketLossDl
attr title  "rlc Packet Loss, lteAvg"
attr unit  ""
scalar MultiCell2.ue22.nic.rlc.um 	rlcPacketLossDl:lteAvg 	0
attr source  rlcPacketLossDl
attr title  "rlc Packet Loss, lteAvg"
attr unit  ""
scalar MultiCell2.ue22.nic.rlc.um 	rlcPduThroughputDl:lteRate 	3160.3990790483
attr source  rlcPduThroughputDl
attr title  "Throughput at the rlc layer DL, lteRate"
attr unit  Bps
scalar MultiCell2.ue22.nic.rlc.um 	rlcPduDelayDl:lteAvg 	0.0053706896551724
attr source  rlcPduDelayDl
attr title  "Delay at the rlc layer UL, lteAvg"
attr unit  s
scalar MultiCell2.ue22.nic.rlc.um 	rlcThroughputDl:lteRate 	3071.373752878
attr source  rlcThroughputDl
attr title  "Throughput at the rlc layer DL, lteRate"
attr unit  Bps
scalar MultiCell2.ue22.nic.rlc.um 	rlcDelayDl:lteAvg 	0.0064477240406897
attr source  rlcDelayDl
attr title  "Delay at the rlc layer UL, lteAvg"
attr unit  s
scalar MultiCell2.ue22.nic.mac 	measuredItbs:mean 	-nan
attr source  measuredItbs
attr title  "TBS index, mean"
attr unit  ""
scalar MultiCell2.ue22.nic.mac 	harqErrorRate_4th_D2D:mean 	-nan
attr source  harqErrorRate_4th_D2D
attr title  "Harq Error Rate D2D, mean"
attr unit  ""
scalar MultiCell2.ue22.nic.mac 	harqErrorRate_4th_Dl:mean 	-nan
attr source  harqErrorRate_4th_Dl
attr title  "Harq Error Rate Dl, mean"
attr unit  ""
scalar MultiCell2.ue22.nic.mac 	harqErrorRate_4th_Ul:mean 	-nan
attr source  harqErrorRate_4th_Ul
attr title  "Harq Error Rate Ul, mean"
attr unit  ""
scalar MultiCell2.ue22.nic.mac 	harqErrorRate_3rd_D2D:mean 	-nan
attr source  harqErrorRate_3rd_D2D
attr title  "Harq Error Rate D2D, mean"
attr unit  ""
scalar MultiCell2.ue22.nic.mac 	harqErrorRate_3rd_Dl:mean 	-nan
attr source  harqErrorRate_3rd_Dl
attr title  "Harq Error Rate Dl, mean"
attr unit  ""
scalar MultiCell2.ue22.nic.mac 	harqErrorRate_3rd_Ul:mean 	-nan
attr source  harqErrorRate_3rd_Ul
attr title  "Harq Error Rate Ul, mean"
attr unit  ""
scalar MultiCell2.ue22.nic.mac 	harqErrorRate_2nd_D2D:mean 	-nan
attr source  harqErrorRate_2nd_D2D
attr title  "Harq Error Rate D2D, mean"
attr unit  ""
scalar MultiCell2.ue22.nic.mac 	harqErrorRate_2nd_Dl:mean 	0
attr source  harqErrorRate_2nd_Dl
attr title  "Harq Error Rate Dl, mean"
attr unit  ""
scalar MultiCell2.ue22.nic.mac 	harqErrorRate_2nd_Ul:mean 	-nan
attr source  harqErrorRate_2nd_Ul
attr title  "Harq Error Rate Ul, mean"
attr unit  ""
scalar MultiCell2.ue22.nic.mac 	harqErrorRate_1st_D2D:mean 	-nan
attr source  harqErrorRate_1st_D2D
attr title  "Harq Error Rate D2D, mean"
attr unit  ""
scalar MultiCell2.ue22.nic.mac 	harqErrorRate_1st_Dl:mean 	0.18103448275862
attr source  harqErrorRate_1st_Dl
attr title  "Harq Error Rate Dl, mean"
attr unit  ""
scalar MultiCell2.ue22.nic.mac 	harqErrorRate_1st_Ul:mean 	-nan
attr source  harqErrorRate_1st_Ul
attr title  "Harq Error Rate Ul, mean"
attr unit  ""
scalar MultiCell2.ue22.nic.mac 	harqErrorRateD2D:mean 	-nan
attr source  harqErrorRateD2D
attr title  "Harq Error Rate D2D, mean"
attr unit  ""
scalar MultiCell2.ue22.nic.mac 	harqErrorRateDl:mean 	0.15328467153285
attr source  harqErrorRateDl
attr title  "Harq Error Rate Dl, mean"
attr unit  ""
scalar MultiCell2.ue22.nic.mac 	harqErrorRateUl:mean 	-nan
attr source  harqErrorRateUl
attr title  "Harq Error Rate Ul, mean"
attr unit  ""
scalar MultiCell2.ue22.nic.mac 	macPacketLossD2D:mean 	-nan
attr source  macPacketLossD2D
attr title  "Mac Packet Loss D2D, mean"
attr unit  ""
scalar MultiCell2.ue22.nic.mac 	macPacketLossDl:mean 	0
attr source  macPacketLossDl
attr title  "Mac Packet Loss Dl, mean"
attr unit  ""
scalar MultiCell2.ue22.nic.mac 	macPacketLossUl:mean 	-nan
attr source  macPacketLossUl
attr title  "Mac Packet Loss Ul, mean"
attr unit  ""
scalar MultiCell2.ue22.nic.mac 	macCellPacketLossD2D:mean 	-nan
attr source  macCellPacketLossD2D
attr title  "Mac Cell Packet Loss D2D, mean"
attr unit  ""
scalar MultiCell2.ue22.nic.mac 	macCellPacketLossUl:mean 	-nan
attr source  macCellPacketLossUl
attr title  "Mac Cell Packet Loss Ul, mean"
attr unit  ""
scalar MultiCell2.ue22.nic.mac 	macCellPacketLossDl:mean 	-nan
attr source  macCellPacketLossDl
attr title  "Mac Cell Packet Loss Dl, mean"
attr unit  ""
scalar MultiCell2.ue22.nic.mac 	macThroughputDl:lteRate 	3249.4244052187
attr source  macThroughputDl
attr title  "Throughput at the MAC layer DL, lteRate"
attr unit  Bps
scalar MultiCell2.ue22.nic.mac 	macDelayDl:lteAvg 	0.0053706896551724
attr source  macDelayDl
attr title  "Delay at the MAC layer UL, lteAvg"
attr unit  s
scalar MultiCell2.ue22.nic.mac 	sentPacketToLowerLayer:count 	137
attr interpolationmode  none
attr source  sentPacketToLowerLayer
scalar MultiCell2.ue22.nic.mac 	sentPacketToLowerLayer:sum(packetBytes) 	0
attr interpolationmode  none
attr source  sentPacketToLowerLayer
scalar MultiCell2.ue22.nic.mac 	sentPacketToUpperLayer:count 	116
attr interpolationmode  none
attr source  sentPacketToUpperLayer
scalar MultiCell2.ue22.nic.mac 	sentPacketToUpperLayer:sum(packetBytes) 	8236
attr interpolationmode  none
attr source  sentPacketToUpperLayer
scalar MultiCell2.ue22.nic.mac 	receivedPacketFromLowerLayer:count 	137
attr interpolationmode  none
attr source  receivedPacketFromLowerLayer
scalar MultiCell2.ue22.nic.mac 	receivedPacketFromLowerLayer:sum(packetBytes) 	0
attr interpolationmode  none
attr source  receivedPacketFromLowerLayer
scalar MultiCell2.ue22.nic.mac 	receivedPacketFromUpperLayer:count 	0
attr interpolationmode  none
attr source  receivedPacketFromUpperLayer
scalar MultiCell2.ue22.nic.mac 	receivedPacketFromUpperLayer:sum(packetBytes) 	0
attr interpolationmode  none
attr source  receivedPacketFromUpperLayer
scalar MultiCell2.ue22.nic.mac 	averageCqiDl:lteAvg 	8.3284671532847
attr source  averageCqiDl
attr title  "Average Cqi reported in DL, lteAvg"
attr unit  cqi
scalar MultiCell2.ue22.networkLayer.arp 	failedARPResolution:count 	0
attr title  "ARP failed resolutions, count"
scalar MultiCell2.ue22.networkLayer.arp 	completedARPResolution:count 	0
attr title  "ARP completed resolutions, count"
scalar MultiCell2.ue22.networkLayer.arp 	initiatedARPResolution:count 	0
attr title  "ARP initiated resolutions, count"
scalar MultiCell2.ue22.networkLayer.arp 	sentReply:count 	0
attr title  "ARP replies sent, count"
scalar MultiCell2.ue22.networkLayer.arp 	sentReq:count 	0
attr title  "ARP request sent, count"
