version 2
run sdnTest-0-20161025-19:31:00-19684
attr configname sdnTest
attr datetime 20161025-19:31:00
attr experiment sdnTest
attr inifile omnetpp.ini
attr iterationvars ""
attr iterationvars2 $repetition=0
attr measurement ""
attr network lte.simulations.sdn.SDN
attr processid 19684
attr repetition 0
attr replication #0
attr resultdir results
attr runnumber 0
attr seedset 0

scalar SDN 	hackForCreateResultsFolder 	0
