version 2
run SingleCell-UL-0-20161013-18:40:05-8519
attr configname SingleCell-UL
attr datetime 20161013-18:40:05
attr experiment SingleCell-UL
attr inifile omnetpp.ini
attr iterationvars $numUEs=5
attr iterationvars2 "$numUEs=5, $repetition=0"
attr measurement $numUEs=5
attr network lte.simulations.networks.SingleCell
attr numUEs 5
attr processid 8519
attr repetition 0
attr replication #0
attr resultdir results
attr runnumber 0
attr seedset 0

scalar . 	numUEs 	5
scalar SingleCell 	hackForCreateResultsFolder 	0
